Generate Time:       0.02887
Build Time:          0.00144
uncore.cc: num_nodes4096
[CSR-HYBRID-PREPROCESSING] Time to quantize nghs and compact vertices = 0.0016246
[CSR-HYBRID-PREPROCESSING] Time to convert to offsets matrix = 0.0006729
[CSR-HYBRID-PREPROCESSING] Time to transpose offsets matrix =  0.0002058

*** ChampSim Multicore Out-of-Order Simulator ***

Warmup Instructions: 1000000
Simulation Instructions: 70000000
Number of CPUs: 1
LLC sets: 2048
LLC ways: 16
Off-chip DRAM Size: 4096 MB Channels: 1 Width: 64-bit Data Rate: 3200 MT/s

CPU 0 runs /mnt/c/Users/f2016/OneDrive/Desktop/Paarth/5th_sem/CS341/project/champsim-for-pin/dpc3_traces/graph_15_100.trace.xz
CPU 0 Bimodal branch predictor

Warmup complete CPU 0 instructions: 1000003 cycles: 409266 (Simulation time: 0 hr 0 min 7 sec) 

cache.cc: registerDatatype 94842970811760 48 dataTYpeID: 2
cache.cc: registerDatatype 94842967018080 32 dataTYpeID: 0
cache.cc: registerDatatype 94842966886960 48 dataTYpeID: 1
Start and End addresses in isSpecialDatatype 1 94842967018080 94842967149152 2403055006933581824
Start and End addresses in isSpecialDatatype 1 94842967018080 94842967149152 2403057257496444928
Start and End addresses in isSpecialDatatype 1 94842967018080 94842967149152 2402993686611755008
Start and End addresses in isSpecialDatatype 1 94842967018080 94842967149152 2403057202735611904
Start and End addresses in isSpecialDatatype 1 94842967018080 94842967149152 2403081395212648448
Start and End addresses in isSpecialDatatype 1 94842967018080 94842967149152 2403050609960812544
Start and End addresses in isSpecialDatatype 1 94842967018080 94842967149152 2403057208104321024
Start and End addresses in isSpecialDatatype 1 94842967018080 94842967149152 2403050612108296192
Start and End addresses in isSpecialDatatype 1 94842967018080 94842967149152 2403057210251804672
Start and End addresses in isSpecialDatatype 1 94842967018080 94842967149152 2403050614255779840
Start and End addresses in isSpecialDatatype 1 94842967018080 94842967149152 2403057212399288320
Start and End addresses in isSpecialDatatype 1 94842967018080 94842967149152 2403050616403263488
Start and End addresses in isSpecialDatatype 1 94842967018080 94842967149152 2403057214546771968
Start and End addresses in isSpecialDatatype 1 94842967018080 94842967149152 2403050618550747136
Start and End addresses in isSpecialDatatype 1 94842967018080 94842967149152 2403057216694255616
Start and End addresses in isSpecialDatatype 1 94842967018080 94842967149152 2403050620698230784
Start and End addresses in isSpecialDatatype 1 94842967018080 94842967149152 2403052821868969984
Start and End addresses in isSpecialDatatype 1 94842967018080 94842967149152 2403057223136706560
Start and End addresses in isSpecialDatatype 1 94842967018080 94842967149152 2403057227431673856
Start and End addresses in isSpecialDatatype 1 94842967018080 94842967149152 2403057231726641152
Start and End addresses in isSpecialDatatype 1 94842967018080 94842967149152 2403057233874124800
Start and End addresses in isSpecialDatatype 1 94842967018080 94842967149152 2403057238169092096
Start and End addresses in isSpecialDatatype 1 94842967018080 94842967149152 2403057240316575744
Start and End addresses in isSpecialDatatype 1 94842967018080 94842967149152 2403057248906510336
Start and End addresses in isSpecialDatatype 1 94842967018080 94842967149152 2403057251053993984
Start and End addresses in isSpecialDatatype 1 94842967018080 94842967149152 2403057255348961280
Start and End addresses in isSpecialDatatype 1 94842967018080 94842967149152 2403081446752256000
Start and End addresses in isSpecialDatatype 1 94842967018080 94842967149152 2403057259643928576
Start and End addresses in isSpecialDatatype 1 94842967018080 94842967149152 2403057263938895872
Start and End addresses in isSpecialDatatype 1 94842967018080 94842967149152 2403057266086379520
Start and End addresses in isSpecialDatatype 1 94842967018080 94842967149152 2403057268233863168
Start and End addresses in isSpecialDatatype 1 94842967018080 94842967149152 2403057269307604992
Start and End addresses in isSpecialDatatype 1 94842967018080 94842967149152 2403057270381346816
Start and End addresses in isSpecialDatatype 1 94842967018080 94842967149152 2403057272528830464
Start and End addresses in isSpecialDatatype 1 94842967018080 94842967149152 2403057276823797760
Start and End addresses in isSpecialDatatype 1 94842967018080 94842967149152 2403057281118765056
Start and End addresses in isSpecialDatatype 1 94842967018080 94842967149152 2403057283266248704
Start and End addresses in isSpecialDatatype 1 94842967018080 94842967149152 2403057287561216000
Start and End addresses in isSpecialDatatype 1 94842967018080 94842967149152 2403057289708699648
Start and End addresses in isSpecialDatatype 1 94842967018080 94842967149152 2403057291856183296
Start and End addresses in isSpecialDatatype 1 94842967018080 94842967149152 2403057294003666944
Start and End addresses in isSpecialDatatype 1 94842967018080 94842967149152 2403057298298634240
Start and End addresses in isSpecialDatatype 1 94842967018080 94842967149152 2403057311183536128
Start and End addresses in isSpecialDatatype 1 94842967018080 94842967149152 2403057313331019776
Start and End addresses in isSpecialDatatype 1 94842967018080 94842967149152 2403057315478503424
Start and End addresses in isSpecialDatatype 1 94842967018080 94842967149152 2403057319773470720
Start and End addresses in isSpecialDatatype 1 94842967018080 94842967149152 2403081647541977088
Start and End addresses in isSpecialDatatype 1 94842967018080 94842967149152 2403057514120740864
Start and End addresses in isSpecialDatatype 1 94842967018080 94842967149152 2403057536669319168
Start and End addresses in isSpecialDatatype 1 94842967018080 94842967149152 2402993922834956288
Start and End addresses in isSpecialDatatype 1 94842967018080 94842967149152 2402993927129923584
Start and End addresses in isSpecialDatatype 1 94842967018080 94842967149152 2402993928203665408
Start and End addresses in isSpecialDatatype 1 94842967018080 94842967149152 2402993929277407232
Start and End addresses in isSpecialDatatype 1 94842967018080 94842967149152 2403057752491425792
Start and End addresses in isSpecialDatatype 1 94842967018080 94842967149152 2403057777187487744
Start and End addresses in isSpecialDatatype 1 94842967018080 94842967149152 2444590910877466624
Start and End addresses in isSpecialDatatype 1 94842967018080 94842967149152 2403057975829725184
Start and End addresses in isSpecialDatatype 1 94842967018080 94842967149152 2444590932352303104
Start and End addresses in isSpecialDatatype 1 94842967018080 94842967149152 2444639456892813312
Start and End addresses in isSpecialDatatype 1 94842967018080 94842967149152 2444639457966555136
Start and End addresses in isSpecialDatatype 1 94842967018080 94842967149152 2444639469777715200
Start and End addresses in isSpecialDatatype 1 94842967018080 94842967149152 2444639470851457024
Start and End addresses in isSpecialDatatype 1 94842967018080 94842967149152 2444639471925198848
Start and End addresses in isSpecialDatatype 1 94842967018080 94842967149152 2403058170176995328
Start and End addresses in isSpecialDatatype 1 94842967018080 94842967149152 2403058217421635584
Start and End addresses in isSpecialDatatype 1 94842967018080 94842967149152 2444641997365968896
Start and End addresses in isSpecialDatatype 1 94842967018080 94842967149152 2444642005955903488
Start and End addresses in isSpecialDatatype 1 94842967018080 94842967149152 2444642017767063552
Start and End addresses in isSpecialDatatype 1 94842967018080 94842967149152 2444642018840805376
Start and End addresses in isSpecialDatatype 1 94842967018080 94842967149152 2403058563166502912
Start and End addresses in isSpecialDatatype 1 94842967018080 94842967149152 2402992721317855232
Start and End addresses in isSpecialDatatype 1 94842967018080 94842967149152 2402992797553524736
Start and End addresses in isSpecialDatatype 1 94842967018080 94842967149152 2402992798627266560
Start and End addresses in isSpecialDatatype 1 94842967018080 94842967149152 2403058770398674944
Start and End addresses in isSpecialDatatype 1 94842967018080 94842967149152 2444644514216804352
Start and End addresses in isSpecialDatatype 1 94842967018080 94842967149152 2402992837281972224
Start and End addresses in isSpecialDatatype 1 94842967018080 94842967149152 2402992838355714048
Start and End addresses in isSpecialDatatype 1 94842967018080 94842967149152 2402992839429455872
Start and End addresses in isSpecialDatatype 1 94842967018080 94842967149152 2402992840503197696
Start and End addresses in isSpecialDatatype 1 94842967018080 94842967149152 2402992841576939520
Start and End addresses in isSpecialDatatype 1 94842967018080 94842967149152 2402992842650681344
Start and End addresses in isSpecialDatatype 1 94842967018080 94842967149152 2444638408920793088
Start and End addresses in isSpecialDatatype 1 94842967018080 94842967149152 2444638409994534912
Start and End addresses in isSpecialDatatype 1 94842967018080 94842967149152 2444638445428015104
Start and End addresses in isSpecialDatatype 1 94842967018080 94842967149152 2444638446501756928
Start and End addresses in isSpecialDatatype 1 94842967018080 94842967149152 2444638447575498752
Start and End addresses in isSpecialDatatype 1 94842967018080 94842967149152 2444638448649240576
Start and End addresses in isSpecialDatatype 1 94842967018080 94842967149152 2444638449722982400
Start and End addresses in isSpecialDatatype 1 94842967018080 94842967149152 2444638450796724224
Start and End addresses in isSpecialDatatype 1 94842967018080 94842967149152 2403050528356433920
Start and End addresses in isSpecialDatatype 1 94842967018080 94842967149152 2444638516294975488
Start and End addresses in isSpecialDatatype 1 94842967018080 94842967149152 2403057199514386432
Start and End addresses in isSpecialDatatype 1 94842967018080 94842967149152 2403057200588128256
Start and End addresses in isSpecialDatatype 1 94842967018080 94842967149152 2403057201661870080
Start and End addresses in isSpecialDatatype 1 94842967018080 94842967149152 2403083591014678528
Start and End addresses in isSpecialDatatype 1 94842967018080 94842967149152 2403057203809353728
Start and End addresses in isSpecialDatatype 1 94842967018080 94842967149152 2403050607813328896
Start and End addresses in isSpecialDatatype 1 94842967018080 94842967149152 2403083594235904000
Start and End addresses in isSpecialDatatype 1 94842967018080 94842967149152 2403083595309645824
Start and End addresses in isSpecialDatatype 1 94842967018080 94842967149152 2403083596383387648
Start and End addresses in isSpecialDatatype 1 94842967018080 94842967149152 2403083597457129472
Start and End addresses in isSpecialDatatype 1 94842967018080 94842967149152 2403083598530871296
Start and End addresses in isSpecialDatatype 1 94842967018080 94842967149152 2403083599604613120
Start and End addresses in isSpecialDatatype 1 94842967018080 94842967149152 2403083600678354944
Start and End addresses in isSpecialDatatype 1 94842967018080 94842967149152 2403083601752096768
Start and End addresses in isSpecialDatatype 1 94842967018080 94842967149152 2403083602825838592
Start and End addresses in isSpecialDatatype 1 94842967018080 94842967149152 2403083603899580416
Start and End addresses in isSpecialDatatype 1 94842967018080 94842967149152 2403083604973322240
Start and End addresses in isSpecialDatatype 1 94842967018080 94842967149152 2403083606047064064
Start and End addresses in isSpecialDatatype 1 94842967018080 94842967149152 2403057218841739264
Start and End addresses in isSpecialDatatype 1 94842967018080 94842967149152 2403057220989222912
Start and End addresses in isSpecialDatatype 1 94842967018080 94842967149152 2403083608194547712
Start and End addresses in isSpecialDatatype 1 94842967018080 94842967149152 2403057222062964736
Start and End addresses in isSpecialDatatype 1 94842967018080 94842967149152 2403083611415773184
Start and End addresses in isSpecialDatatype 1 94842967018080 94842967149152 2403050627140681728
Start and End addresses in isSpecialDatatype 1 94842967018080 94842967149152 2403057225284190208
Start and End addresses in isSpecialDatatype 1 94842967018080 94842967149152 2403057226357932032
Start and End addresses in isSpecialDatatype 1 94842967018080 94842967149152 2403083615710740480
Start and End addresses in isSpecialDatatype 1 94842967018080 94842967149152 2403057228505415680
Start and End addresses in isSpecialDatatype 1 94842967018080 94842967149152 2403057229579157504
Start and End addresses in isSpecialDatatype 1 94842967018080 94842967149152 2403057230652899328
Start and End addresses in isSpecialDatatype 1 94842967018080 94842967149152 2403083620005707776
Start and End addresses in isSpecialDatatype 1 94842967018080 94842967149152 2403057232800382976
Start and End addresses in isSpecialDatatype 1 94842967018080 94842967149152 2403083622153191424
Start and End addresses in isSpecialDatatype 1 94842967018080 94842967149152 2403057234947866624
Start and End addresses in isSpecialDatatype 1 94842967018080 94842967149152 2403057236021608448
Start and End addresses in isSpecialDatatype 1 94842967018080 94842967149152 2403057237095350272
Start and End addresses in isSpecialDatatype 1 94842967018080 94842967149152 2403083626448158720
Start and End addresses in isSpecialDatatype 1 94842967018080 94842967149152 2403083628595642368
Start and End addresses in isSpecialDatatype 1 94842967018080 94842967149152 2403057239242833920
Start and End addresses in isSpecialDatatype 1 94842967018080 94842967149152 2403057241390317568
Start and End addresses in isSpecialDatatype 1 94842967018080 94842967149152 2403057242464059392
Start and End addresses in isSpecialDatatype 1 94842967018080 94842967149152 2403057243537801216
Start and End addresses in isSpecialDatatype 1 94842967018080 94842967149152 2403057244611543040
Start and End addresses in isSpecialDatatype 1 94842967018080 94842967149152 2403057245685284864
Start and End addresses in isSpecialDatatype 1 94842967018080 94842967149152 2403057246759026688
Start and End addresses in isSpecialDatatype 1 94842967018080 94842967149152 2428598655985385472
Start and End addresses in isSpecialDatatype 1 94842967018080 94842967149152 2403057247832768512
Start and End addresses in isSpecialDatatype 1 94842967018080 94842967149152 2403083637185576960
Start and End addresses in isSpecialDatatype 1 94842967018080 94842967149152 2403057249980252160
Start and End addresses in isSpecialDatatype 1 94842967018080 94842967149152 2403083639333060608
Start and End addresses in isSpecialDatatype 1 94842967018080 94842967149152 2403057252127735808
Start and End addresses in isSpecialDatatype 1 94842967018080 94842967149152 2403057253201477632
Start and End addresses in isSpecialDatatype 1 94842967018080 94842967149152 2428598657059127296
Start and End addresses in isSpecialDatatype 1 94842967018080 94842967149152 2403057254275219456
Start and End addresses in isSpecialDatatype 1 94842967018080 94842967149152 2403083643628027904
Start and End addresses in isSpecialDatatype 1 94842967018080 94842967149152 2403057256422703104
Start and End addresses in isSpecialDatatype 1 94842967018080 94842967149152 2403083645775511552
Start and End addresses in isSpecialDatatype 1 94842967018080 94842967149152 2403057258570186752
Start and End addresses in isSpecialDatatype 1 94842967018080 94842967149152 2403083647922995200
Start and End addresses in isSpecialDatatype 1 94842967018080 94842967149152 2403057260717670400
Start and End addresses in isSpecialDatatype 1 94842967018080 94842967149152 2403057261791412224
Start and End addresses in isSpecialDatatype 1 94842967018080 94842967149152 2403057262865154048
Start and End addresses in isSpecialDatatype 1 94842967018080 94842967149152 2403083652217962496
Start and End addresses in isSpecialDatatype 1 94842967018080 94842967149152 2403057265012637696
Start and End addresses in isSpecialDatatype 1 94842967018080 94842967149152 2403083654365446144
Start and End addresses in isSpecialDatatype 1 94842967018080 94842967149152 2403057267160121344
Start and End addresses in isSpecialDatatype 1 94842967018080 94842967149152 2403083656512929792
Start and End addresses in isSpecialDatatype 1 94842967018080 94842967149152 2403083657586671616
Start and End addresses in isSpecialDatatype 1 94842967018080 94842967149152 2403083658660413440
Start and End addresses in isSpecialDatatype 1 94842967018080 94842967149152 2403057271455088640
Start and End addresses in isSpecialDatatype 1 94842967018080 94842967149152 2403083660807897088
Start and End addresses in isSpecialDatatype 1 94842967018080 94842967149152 2403057273602572288
Start and End addresses in isSpecialDatatype 1 94842967018080 94842967149152 2403057274676314112
Start and End addresses in isSpecialDatatype 1 94842967018080 94842967149152 2403057275750055936
Start and End addresses in isSpecialDatatype 1 94842967018080 94842967149152 2403083665102864384
Start and End addresses in isSpecialDatatype 1 94842967018080 94842967149152 2403057277897539584
Start and End addresses in isSpecialDatatype 1 94842967018080 94842967149152 2403057278971281408
Start and End addresses in isSpecialDatatype 1 94842967018080 94842967149152 2403057280045023232
Start and End addresses in isSpecialDatatype 1 94842967018080 94842967149152 2403083669397831680
Start and End addresses in isSpecialDatatype 1 94842967018080 94842967149152 2403057282192506880
Start and End addresses in isSpecialDatatype 1 94842967018080 94842967149152 2403083671545315328
Start and End addresses in isSpecialDatatype 1 94842967018080 94842967149152 2403057284339990528
Start and End addresses in isSpecialDatatype 1 94842967018080 94842967149152 2403057285413732352
Start and End addresses in isSpecialDatatype 1 94842967018080 94842967149152 2403057286487474176
Start and End addresses in isSpecialDatatype 1 94842967018080 94842967149152 2403083675840282624
Start and End addresses in isSpecialDatatype 1 94842967018080 94842967149152 2403057288634957824
Start and End addresses in isSpecialDatatype 1 94842967018080 94842967149152 2403083677987766272
Start and End addresses in isSpecialDatatype 1 94842967018080 94842967149152 2403057290782441472
Start and End addresses in isSpecialDatatype 1 94842967018080 94842967149152 2403083680135249920
Start and End addresses in isSpecialDatatype 1 94842967018080 94842967149152 2403057292929925120
Start and End addresses in isSpecialDatatype 1 94842967018080 94842967149152 2403083682282733568
Start and End addresses in isSpecialDatatype 1 94842967018080 94842967149152 2403057295077408768
Start and End addresses in isSpecialDatatype 1 94842967018080 94842967149152 2403057296151150592
Start and End addresses in isSpecialDatatype 1 94842967018080 94842967149152 2403057297224892416
Start and End addresses in isSpecialDatatype 1 94842967018080 94842967149152 2403083686577700864
Start and End addresses in isSpecialDatatype 1 94842967018080 94842967149152 2403057299372376064
Start and End addresses in isSpecialDatatype 1 94842967018080 94842967149152 2403057300446117888
Start and End addresses in isSpecialDatatype 1 94842967018080 94842967149152 2403057301519859712
Start and End addresses in isSpecialDatatype 1 94842967018080 94842967149152 2403057302593601536
Start and End addresses in isSpecialDatatype 1 94842967018080 94842967149152 2403057303667343360
Start and End addresses in isSpecialDatatype 1 94842967018080 94842967149152 2403057304741085184
Start and End addresses in isSpecialDatatype 1 94842967018080 94842967149152 2403057305814827008
Start and End addresses in isSpecialDatatype 1 94842967018080 94842967149152 2403057306888568832
Start and End addresses in isSpecialDatatype 1 94842967018080 94842967149152 2403057307962310656
Start and End addresses in isSpecialDatatype 1 94842967018080 94842967149152 2403057309036052480
Start and End addresses in isSpecialDatatype 1 94842967018080 94842967149152 2403057310109794304
Start and End addresses in isSpecialDatatype 1 94842967018080 94842967149152 2403083699462602752
Start and End addresses in isSpecialDatatype 1 94842967018080 94842967149152 2403057312257277952
Start and End addresses in isSpecialDatatype 1 94842967018080 94842967149152 2403083701610086400
Start and End addresses in isSpecialDatatype 1 94842967018080 94842967149152 2403057314404761600
Start and End addresses in isSpecialDatatype 1 94842967018080 94842967149152 2403083703757570048
Start and End addresses in isSpecialDatatype 1 94842967018080 94842967149152 2403057316552245248
Start and End addresses in isSpecialDatatype 1 94842967018080 94842967149152 2403057317625987072
Start and End addresses in isSpecialDatatype 1 94842967018080 94842967149152 2403057318699728896
Start and End addresses in isSpecialDatatype 1 94842967018080 94842967149152 2403083708052537344
Start and End addresses in isSpecialDatatype 1 94842967018080 94842967149152 2403057320847212544
Start and End addresses in isSpecialDatatype 1 94842967018080 94842967149152 2403057321920954368
Start and End addresses in isSpecialDatatype 1 94842967018080 94842967149152 2403057322994696192
Start and End addresses in isSpecialDatatype 1 94842967018080 94842967149152 2403057324068438016
Start and End addresses in isSpecialDatatype 1 94842967018080 94842967149152 2403057325142179840
Start and End addresses in isSpecialDatatype 1 94842967018080 94842967149152 2403057326215921664
Start and End addresses in isSpecialDatatype 1 94842967018080 94842967149152 2403057327289663488
Start and End addresses in isSpecialDatatype 1 94842967018080 94842967149152 2403057328363405312
Start and End addresses in isSpecialDatatype 1 94842967018080 94842967149152 2403057329437147136
Start and End addresses in isSpecialDatatype 1 94842967018080 94842967149152 2403057330510888960
Start and End addresses in isSpecialDatatype 1 94842967018080 94842967149152 2403057331584630784
Start and End addresses in isSpecialDatatype 1 94842967018080 94842967149152 2403057332658372608
Start and End addresses in isSpecialDatatype 1 94842967018080 94842967149152 2403057333732114432
Start and End addresses in isSpecialDatatype 1 94842967018080 94842967149152 2403057334805856256
Start and End addresses in isSpecialDatatype 1 94842967018080 94842967149152 2403057335879598080
Start and End addresses in isSpecialDatatype 1 94842967018080 94842967149152 2403057336953339904
Start and End addresses in isSpecialDatatype 1 94842967018080 94842967149152 2403057338027081728
Start and End addresses in isSpecialDatatype 1 94842967018080 94842967149152 2403057339100823552
Start and End addresses in isSpecialDatatype 1 94842967018080 94842967149152 2403057340174565376
Start and End addresses in isSpecialDatatype 1 94842967018080 94842967149152 2403057341248307200
Start and End addresses in isSpecialDatatype 1 94842967018080 94842967149152 2403057342322049024
Start and End addresses in isSpecialDatatype 1 94842967018080 94842967149152 2403057343395790848
Start and End addresses in isSpecialDatatype 1 94842967018080 94842967149152 2403057344469532672
Start and End addresses in isSpecialDatatype 1 94842967018080 94842967149152 2403057345543274496
Start and End addresses in isSpecialDatatype 1 94842967018080 94842967149152 2403057346617016320
Start and End addresses in isSpecialDatatype 1 94842967018080 94842967149152 2403057347690758144
Start and End addresses in isSpecialDatatype 1 94842967018080 94842967149152 2403057348764499968
Start and End addresses in isSpecialDatatype 1 94842967018080 94842967149152 2403057349838241792
Start and End addresses in isSpecialDatatype 1 94842967018080 94842967149152 2403057350911983616
Start and End addresses in isSpecialDatatype 1 94842967018080 94842967149152 2403057351985725440
Start and End addresses in isSpecialDatatype 1 94842967018080 94842967149152 2403057353059467264
Start and End addresses in isSpecialDatatype 1 94842967018080 94842967149152 2403057354133209088
Start and End addresses in isSpecialDatatype 1 94842967018080 94842967149152 2403057355206950912
Start and End addresses in isSpecialDatatype 1 94842967018080 94842967149152 2403057356280692736
Start and End addresses in isSpecialDatatype 1 94842967018080 94842967149152 2403057357354434560
Start and End addresses in isSpecialDatatype 1 94842967018080 94842967149152 2403057358428176384
Start and End addresses in isSpecialDatatype 1 94842967018080 94842967149152 2403057359501918208
Start and End addresses in isSpecialDatatype 1 94842967018080 94842967149152 2403057360575660032
Start and End addresses in isSpecialDatatype 1 94842967018080 94842967149152 2403057361649401856
Start and End addresses in isSpecialDatatype 1 94842967018080 94842967149152 2403057362723143680
Start and End addresses in isSpecialDatatype 1 94842967018080 94842967149152 2403057363796885504
Start and End addresses in isSpecialDatatype 1 94842967018080 94842967149152 2403057364870627328
Start and End addresses in isSpecialDatatype 1 94842967018080 94842967149152 2403057365944369152
Start and End addresses in isSpecialDatatype 1 94842967018080 94842967149152 2403057367018110976
Start and End addresses in isSpecialDatatype 1 94842967018080 94842967149152 2403057368091852800
Start and End addresses in isSpecialDatatype 1 94842967018080 94842967149152 2403057369165594624
Start and End addresses in isSpecialDatatype 1 94842967018080 94842967149152 2403057370239336448
Start and End addresses in isSpecialDatatype 1 94842967018080 94842967149152 2403057371313078272
Start and End addresses in isSpecialDatatype 1 94842967018080 94842967149152 2403057372386820096
Start and End addresses in isSpecialDatatype 1 94842967018080 94842967149152 2403057373460561920
Start and End addresses in isSpecialDatatype 1 94842967018080 94842967149152 2403057374534303744
Start and End addresses in isSpecialDatatype 1 94842967018080 94842967149152 2403057375608045568
Start and End addresses in isSpecialDatatype 1 94842967018080 94842967149152 2403057376681787392
Start and End addresses in isSpecialDatatype 1 94842967018080 94842967149152 2403057377755529216
Start and End addresses in isSpecialDatatype 1 94842967018080 94842967149152 2403057378829271040
Start and End addresses in isSpecialDatatype 1 94842967018080 94842967149152 2403057379903012864
Start and End addresses in isSpecialDatatype 1 94842967018080 94842967149152 2403057380976754688
Start and End addresses in isSpecialDatatype 1 94842967018080 94842967149152 2403057382050496512
Start and End addresses in isSpecialDatatype 1 94842967018080 94842967149152 2403057383124238336
Start and End addresses in isSpecialDatatype 1 94842967018080 94842967149152 2403057384197980160
Start and End addresses in isSpecialDatatype 1 94842967018080 94842967149152 2403057385271721984
Start and End addresses in isSpecialDatatype 1 94842967018080 94842967149152 2403057386345463808
Start and End addresses in isSpecialDatatype 1 94842967018080 94842967149152 2403057387419205632
Start and End addresses in isSpecialDatatype 1 94842967018080 94842967149152 2403057388492947456
Start and End addresses in isSpecialDatatype 1 94842967018080 94842967149152 2403057389566689280
Start and End addresses in isSpecialDatatype 1 94842967018080 94842967149152 2403057390640431104
Start and End addresses in isSpecialDatatype 1 94842967018080 94842967149152 2403057391714172928
Start and End addresses in isSpecialDatatype 1 94842967018080 94842967149152 2403057392787914752
Start and End addresses in isSpecialDatatype 1 94842967018080 94842967149152 2403057393861656576
Start and End addresses in isSpecialDatatype 1 94842967018080 94842967149152 2403057394935398400
Start and End addresses in isSpecialDatatype 1 94842967018080 94842967149152 2403057396009140224
Start and End addresses in isSpecialDatatype 1 94842967018080 94842967149152 2403057397082882048
Start and End addresses in isSpecialDatatype 1 94842967018080 94842967149152 2403057398156623872
Start and End addresses in isSpecialDatatype 1 94842967018080 94842967149152 2403057399230365696
Start and End addresses in isSpecialDatatype 1 94842967018080 94842967149152 2403057400304107520
Start and End addresses in isSpecialDatatype 1 94842967018080 94842967149152 2403057401377849344
Start and End addresses in isSpecialDatatype 1 94842967018080 94842967149152 2403057402451591168
Start and End addresses in isSpecialDatatype 1 94842967018080 94842967149152 2403057403525332992
Start and End addresses in isSpecialDatatype 1 94842967018080 94842967149152 2403057404599074816
Start and End addresses in isSpecialDatatype 1 94842967018080 94842967149152 2403057405672816640
Start and End addresses in isSpecialDatatype 1 94842967018080 94842967149152 2403057406746558464
Start and End addresses in isSpecialDatatype 1 94842967018080 94842967149152 2403057407820300288
Start and End addresses in isSpecialDatatype 1 94842967018080 94842967149152 2403057408894042112
Start and End addresses in isSpecialDatatype 1 94842967018080 94842967149152 2403057409967783936
Start and End addresses in isSpecialDatatype 1 94842967018080 94842967149152 2403057411041525760
Start and End addresses in isSpecialDatatype 1 94842967018080 94842967149152 2403057412115267584
Start and End addresses in isSpecialDatatype 1 94842967018080 94842967149152 2403057413189009408
Start and End addresses in isSpecialDatatype 1 94842967018080 94842967149152 2403057414262751232
Start and End addresses in isSpecialDatatype 1 94842967018080 94842967149152 2403057415336493056
Start and End addresses in isSpecialDatatype 1 94842967018080 94842967149152 2403057416410234880
Start and End addresses in isSpecialDatatype 1 94842967018080 94842967149152 2403057417483976704
Start and End addresses in isSpecialDatatype 1 94842967018080 94842967149152 2403057418557718528
Start and End addresses in isSpecialDatatype 1 94842967018080 94842967149152 2403057420705202176
Start and End addresses in isSpecialDatatype 1 94842967018080 94842967149152 2403057419631460352
Start and End addresses in isSpecialDatatype 1 94842967018080 94842967149152 2403057421778944000
Start and End addresses in isSpecialDatatype 1 94842967018080 94842967149152 2403057422852685824
Start and End addresses in isSpecialDatatype 1 94842967018080 94842967149152 2403057423926427648
Start and End addresses in isSpecialDatatype 1 94842967018080 94842967149152 2403057425000169472
Start and End addresses in isSpecialDatatype 1 94842967018080 94842967149152 2403057426073911296
Start and End addresses in isSpecialDatatype 1 94842967018080 94842967149152 2403057427147653120
Start and End addresses in isSpecialDatatype 1 94842967018080 94842967149152 2403057428221394944
Start and End addresses in isSpecialDatatype 1 94842967018080 94842967149152 2403057429295136768
Start and End addresses in isSpecialDatatype 1 94842967018080 94842967149152 2403057430368878592
Start and End addresses in isSpecialDatatype 1 94842967018080 94842967149152 2403057431442620416
Start and End addresses in isSpecialDatatype 1 94842967018080 94842967149152 2403057432516362240
Start and End addresses in isSpecialDatatype 1 94842967018080 94842967149152 2403057433590104064
Start and End addresses in isSpecialDatatype 1 94842967018080 94842967149152 2403057434663845888
Start and End addresses in isSpecialDatatype 1 94842967018080 94842967149152 2403057435737587712
Start and End addresses in isSpecialDatatype 1 94842967018080 94842967149152 2403057436811329536
Start and End addresses in isSpecialDatatype 1 94842967018080 94842967149152 2403057437885071360
Start and End addresses in isSpecialDatatype 1 94842967018080 94842967149152 2403057438958813184
Start and End addresses in isSpecialDatatype 1 94842967018080 94842967149152 2403057440032555008
Start and End addresses in isSpecialDatatype 1 94842967018080 94842967149152 2403057441106296832
Start and End addresses in isSpecialDatatype 1 94842967018080 94842967149152 2403057442180038656
Start and End addresses in isSpecialDatatype 1 94842967018080 94842967149152 2403057443253780480
Start and End addresses in isSpecialDatatype 1 94842967018080 94842967149152 2403057444327522304
Start and End addresses in isSpecialDatatype 1 94842967018080 94842967149152 2403057445401264128
Start and End addresses in isSpecialDatatype 1 94842967018080 94842967149152 2403057446475005952
Start and End addresses in isSpecialDatatype 1 94842967018080 94842967149152 2403057447548747776
Start and End addresses in isSpecialDatatype 1 94842967018080 94842967149152 2403057448622489600
Start and End addresses in isSpecialDatatype 1 94842967018080 94842967149152 2403057449696231424
Start and End addresses in isSpecialDatatype 1 94842967018080 94842967149152 2403057450769973248
Start and End addresses in isSpecialDatatype 1 94842967018080 94842967149152 2403057451843715072
Start and End addresses in isSpecialDatatype 1 94842967018080 94842967149152 2403057452917456896
Start and End addresses in isSpecialDatatype 1 94842967018080 94842967149152 2403057453991198720
Start and End addresses in isSpecialDatatype 1 94842967018080 94842967149152 2403057455064940544
Start and End addresses in isSpecialDatatype 1 94842967018080 94842967149152 2403057456138682368
Start and End addresses in isSpecialDatatype 1 94842967018080 94842967149152 2403057457212424192
Start and End addresses in isSpecialDatatype 1 94842967018080 94842967149152 2403083846565232640
Start and End addresses in isSpecialDatatype 1 94842967018080 94842967149152 2403057459359907840
Start and End addresses in isSpecialDatatype 1 94842967018080 94842967149152 2403057460433649664
Start and End addresses in isSpecialDatatype 1 94842967018080 94842967149152 2403057461507391488
Start and End addresses in isSpecialDatatype 1 94842967018080 94842967149152 2403057462581133312
Start and End addresses in isSpecialDatatype 1 94842967018080 94842967149152 2403057463654875136
Start and End addresses in isSpecialDatatype 1 94842967018080 94842967149152 2403057464728616960
Start and End addresses in isSpecialDatatype 1 94842967018080 94842967149152 2403057465802358784
Start and End addresses in isSpecialDatatype 1 94842967018080 94842967149152 2403057466876100608
Start and End addresses in isSpecialDatatype 1 94842967018080 94842967149152 2403057467949842432
Start and End addresses in isSpecialDatatype 1 94842967018080 94842967149152 2403057469023584256
Start and End addresses in isSpecialDatatype 1 94842967018080 94842967149152 2403057470097326080
Start and End addresses in isSpecialDatatype 1 94842967018080 94842967149152 2403057471171067904
Start and End addresses in isSpecialDatatype 1 94842967018080 94842967149152 2403057472244809728
Start and End addresses in isSpecialDatatype 1 94842967018080 94842967149152 2403057473318551552
Start and End addresses in isSpecialDatatype 1 94842967018080 94842967149152 2403057474392293376
Start and End addresses in isSpecialDatatype 1 94842967018080 94842967149152 2403057475466035200
Start and End addresses in isSpecialDatatype 1 94842967018080 94842967149152 2403057476539777024
Start and End addresses in isSpecialDatatype 1 94842967018080 94842967149152 2403057477613518848
Start and End addresses in isSpecialDatatype 1 94842967018080 94842967149152 2403057478687260672
Start and End addresses in isSpecialDatatype 1 94842967018080 94842967149152 2403057479761002496
Start and End addresses in isSpecialDatatype 1 94842967018080 94842967149152 2403057480834744320
Start and End addresses in isSpecialDatatype 1 94842967018080 94842967149152 2403057481908486144
Start and End addresses in isSpecialDatatype 1 94842967018080 94842967149152 2403057482982227968
Start and End addresses in isSpecialDatatype 1 94842967018080 94842967149152 2403057484055969792
Start and End addresses in isSpecialDatatype 1 94842967018080 94842967149152 2403057485129711616
Start and End addresses in isSpecialDatatype 1 94842967018080 94842967149152 2403057486203453440
Start and End addresses in isSpecialDatatype 1 94842967018080 94842967149152 2403057487277195264
Start and End addresses in isSpecialDatatype 1 94842967018080 94842967149152 2403057488350937088
Start and End addresses in isSpecialDatatype 1 94842967018080 94842967149152 2403057489424678912
Start and End addresses in isSpecialDatatype 1 94842967018080 94842967149152 2403057490498420736
Start and End addresses in isSpecialDatatype 1 94842967018080 94842967149152 2403057491572162560
Start and End addresses in isSpecialDatatype 1 94842967018080 94842967149152 2403057492645904384
Start and End addresses in isSpecialDatatype 1 94842967018080 94842967149152 2403057493719646208
Start and End addresses in isSpecialDatatype 1 94842967018080 94842967149152 2403057494793388032
Start and End addresses in isSpecialDatatype 1 94842967018080 94842967149152 2403057495867129856
Start and End addresses in isSpecialDatatype 1 94842967018080 94842967149152 2403057496940871680
Start and End addresses in isSpecialDatatype 1 94842967018080 94842967149152 2403057498014613504
Start and End addresses in isSpecialDatatype 1 94842967018080 94842967149152 2403057499088355328
Start and End addresses in isSpecialDatatype 1 94842967018080 94842967149152 2403057500162097152
Start and End addresses in isSpecialDatatype 1 94842967018080 94842967149152 2403057501235838976
Start and End addresses in isSpecialDatatype 1 94842967018080 94842967149152 2403057502309580800
Start and End addresses in isSpecialDatatype 1 94842967018080 94842967149152 2403057503383322624
Start and End addresses in isSpecialDatatype 1 94842967018080 94842967149152 2403057504457064448
Start and End addresses in isSpecialDatatype 1 94842967018080 94842967149152 2403057505530806272
Start and End addresses in isSpecialDatatype 1 94842967018080 94842967149152 2403057506604548096
Start and End addresses in isSpecialDatatype 1 94842967018080 94842967149152 2403057507678289920
Start and End addresses in isSpecialDatatype 1 94842967018080 94842967149152 2403057508752031744
Start and End addresses in isSpecialDatatype 1 94842967018080 94842967149152 2403057509825773568
Start and End addresses in isSpecialDatatype 1 94842967018080 94842967149152 2403057510899515392
Start and End addresses in isSpecialDatatype 1 94842967018080 94842967149152 2403057511973257216
Start and End addresses in isSpecialDatatype 1 94842967018080 94842967149152 2403057513046999040
Start and End addresses in isSpecialDatatype 1 94842967018080 94842967149152 2403083902399807488
Start and End addresses in isSpecialDatatype 1 94842967018080 94842967149152 2403057515194482688
Start and End addresses in isSpecialDatatype 1 94842967018080 94842967149152 2403057516268224512
Start and End addresses in isSpecialDatatype 1 94842967018080 94842967149152 2403057517341966336
Start and End addresses in isSpecialDatatype 1 94842967018080 94842967149152 2403057518415708160
Start and End addresses in isSpecialDatatype 1 94842967018080 94842967149152 2403057519489449984
Start and End addresses in isSpecialDatatype 1 94842967018080 94842967149152 2403057520563191808
Start and End addresses in isSpecialDatatype 1 94842967018080 94842967149152 2403057521636933632
Start and End addresses in isSpecialDatatype 1 94842967018080 94842967149152 2403057522710675456
Start and End addresses in isSpecialDatatype 1 94842967018080 94842967149152 2403057523784417280
Start and End addresses in isSpecialDatatype 1 94842967018080 94842967149152 2403057524858159104
Start and End addresses in isSpecialDatatype 1 94842967018080 94842967149152 2403057525931900928
Start and End addresses in isSpecialDatatype 1 94842967018080 94842967149152 2403057527005642752
Start and End addresses in isSpecialDatatype 1 94842967018080 94842967149152 2403057528079384576
Start and End addresses in isSpecialDatatype 1 94842967018080 94842967149152 2403057529153126400
Start and End addresses in isSpecialDatatype 1 94842967018080 94842967149152 2403057530226868224
Start and End addresses in isSpecialDatatype 1 94842967018080 94842967149152 2403057532374351872
Start and End addresses in isSpecialDatatype 1 94842967018080 94842967149152 2403057531300610048
Start and End addresses in isSpecialDatatype 1 94842967018080 94842967149152 2403057533448093696
Start and End addresses in isSpecialDatatype 1 94842967018080 94842967149152 2403057534521835520
Start and End addresses in isSpecialDatatype 1 94842967018080 94842967149152 2403057535595577344
Start and End addresses in isSpecialDatatype 1 94842967018080 94842967149152 2403053138622808064
Start and End addresses in isSpecialDatatype 1 94842967018080 94842967149152 2403057537743060992
Start and End addresses in isSpecialDatatype 1 94842967018080 94842967149152 2403057538816802816
Start and End addresses in isSpecialDatatype 1 94842967018080 94842967149152 2403057539890544640
Start and End addresses in isSpecialDatatype 1 94842967018080 94842967149152 2403057540964286464
Start and End addresses in isSpecialDatatype 1 94842967018080 94842967149152 2403057542038028288
Start and End addresses in isSpecialDatatype 1 94842967018080 94842967149152 2403057543111770112
Start and End addresses in isSpecialDatatype 1 94842967018080 94842967149152 2403057544185511936
Start and End addresses in isSpecialDatatype 1 94842967018080 94842967149152 2403057545259253760
Start and End addresses in isSpecialDatatype 1 94842967018080 94842967149152 2403057546332995584
Start and End addresses in isSpecialDatatype 1 94842967018080 94842967149152 2403057547406737408
Start and End addresses in isSpecialDatatype 1 94842967018080 94842967149152 2403057548480479232
Start and End addresses in isSpecialDatatype 1 94842967018080 94842967149152 2403057549554221056
Start and End addresses in isSpecialDatatype 1 94842967018080 94842967149152 2403057550627962880
Start and End addresses in isSpecialDatatype 1 94842967018080 94842967149152 2403057551701704704
Start and End addresses in isSpecialDatatype 1 94842967018080 94842967149152 2403057552775446528
Start and End addresses in isSpecialDatatype 1 94842967018080 94842967149152 2403057553849188352
Start and End addresses in isSpecialDatatype 1 94842967018080 94842967149152 2403057554922930176
Start and End addresses in isSpecialDatatype 1 94842967018080 94842967149152 2403057555996672000
Start and End addresses in isSpecialDatatype 1 94842967018080 94842967149152 2403057557070413824
Start and End addresses in isSpecialDatatype 1 94842967018080 94842967149152 2403057558144155648
Start and End addresses in isSpecialDatatype 1 94842967018080 94842967149152 2403057559217897472
Start and End addresses in isSpecialDatatype 1 94842967018080 94842967149152 2403057560291639296
Start and End addresses in isSpecialDatatype 1 94842967018080 94842967149152 2403057561365381120
Start and End addresses in isSpecialDatatype 1 94842967018080 94842967149152 2403057562439122944
Start and End addresses in isSpecialDatatype 1 94842967018080 94842967149152 2403057563512864768
Start and End addresses in isSpecialDatatype 1 94842967018080 94842967149152 2403057564586606592
Start and End addresses in isSpecialDatatype 1 94842967018080 94842967149152 2403057565660348416
Start and End addresses in isSpecialDatatype 1 94842967018080 94842967149152 2403057566734090240
Start and End addresses in isSpecialDatatype 1 94842967018080 94842967149152 2403057567807832064
Start and End addresses in isSpecialDatatype 1 94842967018080 94842967149152 2403057568881573888
Start and End addresses in isSpecialDatatype 1 94842967018080 94842967149152 2403057569955315712
Start and End addresses in isSpecialDatatype 1 94842967018080 94842967149152 2403057571029057536
Start and End addresses in isSpecialDatatype 1 94842967018080 94842967149152 2403057572102799360
Start and End addresses in isSpecialDatatype 1 94842967018080 94842967149152 2403057573176541184
Start and End addresses in isSpecialDatatype 1 94842967018080 94842967149152 2403057574250283008
Start and End addresses in isSpecialDatatype 1 94842967018080 94842967149152 2403057575324024832
Start and End addresses in isSpecialDatatype 1 94842967018080 94842967149152 2403057576397766656
Start and End addresses in isSpecialDatatype 1 94842967018080 94842967149152 2403057577471508480
Start and End addresses in isSpecialDatatype 1 94842967018080 94842967149152 2403057578545250304
Start and End addresses in isSpecialDatatype 1 94842967018080 94842967149152 2403057579618992128
Start and End addresses in isSpecialDatatype 1 94842967018080 94842967149152 2403057580692733952
Start and End addresses in isSpecialDatatype 1 94842967018080 94842967149152 2403057581766475776
Start and End addresses in isSpecialDatatype 1 94842967018080 94842967149152 2403057582840217600
Start and End addresses in isSpecialDatatype 1 94842967018080 94842967149152 2403057583913959424
Start and End addresses in isSpecialDatatype 1 94842967018080 94842967149152 2403057584987701248
Start and End addresses in isSpecialDatatype 1 94842967018080 94842967149152 2403057586061443072
Start and End addresses in isSpecialDatatype 1 94842967018080 94842967149152 2403057587135184896
Start and End addresses in isSpecialDatatype 1 94842967018080 94842967149152 2403057588208926720
Start and End addresses in isSpecialDatatype 1 94842967018080 94842967149152 2403057589282668544
Start and End addresses in isSpecialDatatype 1 94842967018080 94842967149152 2403057590356410368
Start and End addresses in isSpecialDatatype 1 94842967018080 94842967149152 2403057591430152192
Start and End addresses in isSpecialDatatype 1 94842967018080 94842967149152 2403057592503894016
Start and End addresses in isSpecialDatatype 1 94842967018080 94842967149152 2403057593577635840
Start and End addresses in isSpecialDatatype 1 94842967018080 94842967149152 2403057594651377664
Start and End addresses in isSpecialDatatype 1 94842967018080 94842967149152 2403057595725119488
Start and End addresses in isSpecialDatatype 1 94842967018080 94842967149152 2403057596798861312
Start and End addresses in isSpecialDatatype 1 94842967018080 94842967149152 2403057597872603136
Start and End addresses in isSpecialDatatype 1 94842967018080 94842967149152 2403057598946344960
Start and End addresses in isSpecialDatatype 1 94842967018080 94842967149152 2403057600020086784
Start and End addresses in isSpecialDatatype 1 94842967018080 94842967149152 2403057601093828608
Start and End addresses in isSpecialDatatype 1 94842967018080 94842967149152 2403057602167570432
Start and End addresses in isSpecialDatatype 1 94842967018080 94842967149152 2403057603241312256
Start and End addresses in isSpecialDatatype 1 94842967018080 94842967149152 2403057604315054080
Start and End addresses in isSpecialDatatype 1 94842967018080 94842967149152 2403057605388795904
Start and End addresses in isSpecialDatatype 1 94842967018080 94842967149152 2403057606462537728
Start and End addresses in isSpecialDatatype 1 94842967018080 94842967149152 2403057607536279552
Start and End addresses in isSpecialDatatype 1 94842967018080 94842967149152 2403057608610021376
Start and End addresses in isSpecialDatatype 1 94842967018080 94842967149152 2403057609683763200
Start and End addresses in isSpecialDatatype 1 94842967018080 94842967149152 2403057610757505024
Start and End addresses in isSpecialDatatype 1 94842967018080 94842967149152 2403057611831246848
Start and End addresses in isSpecialDatatype 1 94842967018080 94842967149152 2403057612904988672
Start and End addresses in isSpecialDatatype 1 94842967018080 94842967149152 2403057613978730496
Start and End addresses in isSpecialDatatype 1 94842967018080 94842967149152 2403057615052472320
Start and End addresses in isSpecialDatatype 1 94842967018080 94842967149152 2403057616126214144
Start and End addresses in isSpecialDatatype 1 94842967018080 94842967149152 2403057617199955968
Start and End addresses in isSpecialDatatype 1 94842967018080 94842967149152 2403057618273697792
Start and End addresses in isSpecialDatatype 1 94842967018080 94842967149152 2403057619347439616
Start and End addresses in isSpecialDatatype 1 94842967018080 94842967149152 2403057620421181440
Start and End addresses in isSpecialDatatype 1 94842967018080 94842967149152 2403057621494923264
Start and End addresses in isSpecialDatatype 1 94842967018080 94842967149152 2403057622568665088
Start and End addresses in isSpecialDatatype 1 94842967018080 94842967149152 2403057623642406912
Start and End addresses in isSpecialDatatype 1 94842967018080 94842967149152 2403057624716148736
Start and End addresses in isSpecialDatatype 1 94842967018080 94842967149152 2403057625789890560
Start and End addresses in isSpecialDatatype 1 94842967018080 94842967149152 2403057626863632384
Start and End addresses in isSpecialDatatype 1 94842967018080 94842967149152 2403057627937374208
Start and End addresses in isSpecialDatatype 1 94842967018080 94842967149152 2403057629011116032
Start and End addresses in isSpecialDatatype 1 94842967018080 94842967149152 2403057630084857856
Start and End addresses in isSpecialDatatype 1 94842967018080 94842967149152 2403057631158599680
Start and End addresses in isSpecialDatatype 1 94842967018080 94842967149152 2403086123971641344
Start and End addresses in isSpecialDatatype 1 94842967018080 94842967149152 2403057632232341504
Start and End addresses in isSpecialDatatype 1 94842967018080 94842967149152 2403057633306083328
Start and End addresses in isSpecialDatatype 1 94842967018080 94842967149152 2403057634379825152
Start and End addresses in isSpecialDatatype 1 94842967018080 94842967149152 2403057635453566976
Start and End addresses in isSpecialDatatype 1 94842967018080 94842967149152 2403057636527308800
Start and End addresses in isSpecialDatatype 1 94842967018080 94842967149152 2403057637601050624
Start and End addresses in isSpecialDatatype 1 94842967018080 94842967149152 2403057638674792448
Start and End addresses in isSpecialDatatype 1 94842967018080 94842967149152 2403057639748534272
Start and End addresses in isSpecialDatatype 1 94842967018080 94842967149152 2403057640822276096
Start and End addresses in isSpecialDatatype 1 94842967018080 94842967149152 2403057641896017920
Start and End addresses in isSpecialDatatype 1 94842967018080 94842967149152 2403057642969759744
Start and End addresses in isSpecialDatatype 1 94842967018080 94842967149152 2403057644043501568
Start and End addresses in isSpecialDatatype 1 94842967018080 94842967149152 2403057645117243392
Start and End addresses in isSpecialDatatype 1 94842967018080 94842967149152 2403057646190985216
Start and End addresses in isSpecialDatatype 1 94842967018080 94842967149152 2403057647264727040
Start and End addresses in isSpecialDatatype 1 94842967018080 94842967149152 2403057648338468864
Start and End addresses in isSpecialDatatype 1 94842967018080 94842967149152 2403057649412210688
Start and End addresses in isSpecialDatatype 1 94842967018080 94842967149152 2403057650485952512
Start and End addresses in isSpecialDatatype 1 94842967018080 94842967149152 2403057651559694336
Start and End addresses in isSpecialDatatype 1 94842967018080 94842967149152 2403057652633436160
Start and End addresses in isSpecialDatatype 1 94842967018080 94842967149152 2403057653707177984
Start and End addresses in isSpecialDatatype 1 94842967018080 94842967149152 2403057654780919808
Start and End addresses in isSpecialDatatype 1 94842967018080 94842967149152 2403057655854661632
Start and End addresses in isSpecialDatatype 1 94842967018080 94842967149152 2403057656928403456
Start and End addresses in isSpecialDatatype 1 94842967018080 94842967149152 2403057658002145280
Start and End addresses in isSpecialDatatype 1 94842967018080 94842967149152 2403057659075887104
Start and End addresses in isSpecialDatatype 1 94842967018080 94842967149152 2403057660149628928
Start and End addresses in isSpecialDatatype 1 94842967018080 94842967149152 2403057661223370752
Start and End addresses in isSpecialDatatype 1 94842967018080 94842967149152 2403057662297112576
Start and End addresses in isSpecialDatatype 1 94842967018080 94842967149152 2403057663370854400
Start and End addresses in isSpecialDatatype 1 94842967018080 94842967149152 2403057664444596224
Start and End addresses in isSpecialDatatype 1 94842967018080 94842967149152 2403057665518338048
Start and End addresses in isSpecialDatatype 1 94842967018080 94842967149152 2403057666592079872
Start and End addresses in isSpecialDatatype 1 94842967018080 94842967149152 2403057667665821696
Start and End addresses in isSpecialDatatype 1 94842967018080 94842967149152 2403057668739563520
Start and End addresses in isSpecialDatatype 1 94842967018080 94842967149152 2403057669813305344
Start and End addresses in isSpecialDatatype 1 94842967018080 94842967149152 2403057670887047168
Start and End addresses in isSpecialDatatype 1 94842967018080 94842967149152 2403057671960788992
Start and End addresses in isSpecialDatatype 1 94842967018080 94842967149152 2403057673034530816
Start and End addresses in isSpecialDatatype 1 94842967018080 94842967149152 2403057674108272640
Start and End addresses in isSpecialDatatype 1 94842967018080 94842967149152 2403057675182014464
Start and End addresses in isSpecialDatatype 1 94842967018080 94842967149152 2403057676255756288
Start and End addresses in isSpecialDatatype 1 94842967018080 94842967149152 2403057677329498112
Start and End addresses in isSpecialDatatype 1 94842967018080 94842967149152 2403057678403239936
Start and End addresses in isSpecialDatatype 1 94842967018080 94842967149152 2403057679476981760
Start and End addresses in isSpecialDatatype 1 94842967018080 94842967149152 2403057680550723584
Start and End addresses in isSpecialDatatype 1 94842967018080 94842967149152 2403057681624465408
Start and End addresses in isSpecialDatatype 1 94842967018080 94842967149152 2403057682698207232
Start and End addresses in isSpecialDatatype 1 94842967018080 94842967149152 2403057683771949056
Start and End addresses in isSpecialDatatype 1 94842967018080 94842967149152 2403057684845690880
Start and End addresses in isSpecialDatatype 1 94842967018080 94842967149152 2403057685919432704
Start and End addresses in isSpecialDatatype 1 94842967018080 94842967149152 2403057686993174528
Start and End addresses in isSpecialDatatype 1 94842967018080 94842967149152 2403057688066916352
Start and End addresses in isSpecialDatatype 1 94842967018080 94842967149152 2403057689140658176
Start and End addresses in isSpecialDatatype 1 94842967018080 94842967149152 2403057690214400000
Start and End addresses in isSpecialDatatype 1 94842967018080 94842967149152 2403057691288141824
Start and End addresses in isSpecialDatatype 1 94842967018080 94842967149152 2403057692361883648
Start and End addresses in isSpecialDatatype 1 94842967018080 94842967149152 2403057693435625472
Start and End addresses in isSpecialDatatype 1 94842967018080 94842967149152 2403084082788433920
Start and End addresses in isSpecialDatatype 1 94842967018080 94842967149152 2403057695583109120
Start and End addresses in isSpecialDatatype 1 94842967018080 94842967149152 2403057696656850944
Start and End addresses in isSpecialDatatype 1 94842967018080 94842967149152 2403057697730592768
Start and End addresses in isSpecialDatatype 1 94842967018080 94842967149152 2403084087083401216
Start and End addresses in isSpecialDatatype 1 94842967018080 94842967149152 2403084088157143040
Start and End addresses in isSpecialDatatype 1 94842967018080 94842967149152 2403084089230884864
Start and End addresses in isSpecialDatatype 1 94842967018080 94842967149152 2403057702025560064
Start and End addresses in isSpecialDatatype 1 94842967018080 94842967149152 2403057703099301888
Start and End addresses in isSpecialDatatype 1 94842967018080 94842967149152 2403057704173043712
Start and End addresses in isSpecialDatatype 1 94842967018080 94842967149152 2403057705246785536
Start and End addresses in isSpecialDatatype 1 94842967018080 94842967149152 2403057706320527360
Start and End addresses in isSpecialDatatype 1 94842967018080 94842967149152 2403057707394269184
Start and End addresses in isSpecialDatatype 1 94842967018080 94842967149152 2403057708468011008
Start and End addresses in isSpecialDatatype 1 94842967018080 94842967149152 2403057709541752832
Start and End addresses in isSpecialDatatype 1 94842967018080 94842967149152 2403057710615494656
Start and End addresses in isSpecialDatatype 1 94842967018080 94842967149152 2403057711689236480
Start and End addresses in isSpecialDatatype 1 94842967018080 94842967149152 2403057712762978304
Start and End addresses in isSpecialDatatype 1 94842967018080 94842967149152 2403057713836720128
Start and End addresses in isSpecialDatatype 1 94842967018080 94842967149152 2403057714910461952
Start and End addresses in isSpecialDatatype 1 94842967018080 94842967149152 2403057715984203776
Start and End addresses in isSpecialDatatype 1 94842967018080 94842967149152 2403057717057945600
Start and End addresses in isSpecialDatatype 1 94842967018080 94842967149152 2403057718131687424
Start and End addresses in isSpecialDatatype 1 94842967018080 94842967149152 2403057719205429248
Start and End addresses in isSpecialDatatype 1 94842967018080 94842967149152 2403057720279171072
Start and End addresses in isSpecialDatatype 1 94842967018080 94842967149152 2403057721352912896
Start and End addresses in isSpecialDatatype 1 94842967018080 94842967149152 2403057722426654720
Start and End addresses in isSpecialDatatype 1 94842967018080 94842967149152 2403057723500396544
Start and End addresses in isSpecialDatatype 1 94842967018080 94842967149152 2403057724574138368
Start and End addresses in isSpecialDatatype 1 94842967018080 94842967149152 2403057725647880192
Start and End addresses in isSpecialDatatype 1 94842967018080 94842967149152 2403057726721622016
Start and End addresses in isSpecialDatatype 1 94842967018080 94842967149152 2403057727795363840
Start and End addresses in isSpecialDatatype 1 94842967018080 94842967149152 2403057728869105664
Start and End addresses in isSpecialDatatype 1 94842967018080 94842967149152 2403057729942847488
Start and End addresses in isSpecialDatatype 1 94842967018080 94842967149152 2403057731016589312
Start and End addresses in isSpecialDatatype 1 94842967018080 94842967149152 2403057732090331136
Start and End addresses in isSpecialDatatype 1 94842967018080 94842967149152 2403057733164072960
Start and End addresses in isSpecialDatatype 1 94842967018080 94842967149152 2403057734237814784
Start and End addresses in isSpecialDatatype 1 94842967018080 94842967149152 2403057735311556608
Start and End addresses in isSpecialDatatype 1 94842967018080 94842967149152 2403057736385298432
Start and End addresses in isSpecialDatatype 1 94842967018080 94842967149152 2403057737459040256
Start and End addresses in isSpecialDatatype 1 94842967018080 94842967149152 2403057738532782080
Start and End addresses in isSpecialDatatype 1 94842967018080 94842967149152 2403057739606523904
Start and End addresses in isSpecialDatatype 1 94842967018080 94842967149152 2403057740680265728
Start and End addresses in isSpecialDatatype 1 94842967018080 94842967149152 2403057741754007552
Start and End addresses in isSpecialDatatype 1 94842967018080 94842967149152 2403057742827749376
Start and End addresses in isSpecialDatatype 1 94842967018080 94842967149152 2403057743901491200
Start and End addresses in isSpecialDatatype 1 94842967018080 94842967149152 2403057744975233024
Start and End addresses in isSpecialDatatype 1 94842967018080 94842967149152 2403057746048974848
Start and End addresses in isSpecialDatatype 1 94842967018080 94842967149152 2403057747122716672
Start and End addresses in isSpecialDatatype 1 94842967018080 94842967149152 2403057748196458496
Start and End addresses in isSpecialDatatype 1 94842967018080 94842967149152 2403057749270200320
Start and End addresses in isSpecialDatatype 1 94842967018080 94842967149152 2403057750343942144
Start and End addresses in isSpecialDatatype 1 94842967018080 94842967149152 2403057751417683968
Start and End addresses in isSpecialDatatype 1 94842967018080 94842967149152 2403084140770492416
Start and End addresses in isSpecialDatatype 1 94842967018080 94842967149152 2403057753565167616
Start and End addresses in isSpecialDatatype 1 94842967018080 94842967149152 2403057754638909440
Start and End addresses in isSpecialDatatype 1 94842967018080 94842967149152 2403057755712651264
Start and End addresses in isSpecialDatatype 1 94842967018080 94842967149152 2403057756786393088
Start and End addresses in isSpecialDatatype 1 94842967018080 94842967149152 2403057757860134912
Start and End addresses in isSpecialDatatype 1 94842967018080 94842967149152 2403057758933876736
Start and End addresses in isSpecialDatatype 1 94842967018080 94842967149152 2403057760007618560
Start and End addresses in isSpecialDatatype 1 94842967018080 94842967149152 2403057761081360384
Start and End addresses in isSpecialDatatype 1 94842967018080 94842967149152 2403057762155102208
Start and End addresses in isSpecialDatatype 1 94842967018080 94842967149152 2403057763228844032
Start and End addresses in isSpecialDatatype 1 94842967018080 94842967149152 2403057764302585856
Start and End addresses in isSpecialDatatype 1 94842967018080 94842967149152 2403057765376327680
Start and End addresses in isSpecialDatatype 1 94842967018080 94842967149152 2403057766450069504
Start and End addresses in isSpecialDatatype 1 94842967018080 94842967149152 2403057767523811328
Start and End addresses in isSpecialDatatype 1 94842967018080 94842967149152 2403057768597553152
Start and End addresses in isSpecialDatatype 1 94842967018080 94842967149152 2403057770745036800
Start and End addresses in isSpecialDatatype 1 94842967018080 94842967149152 2403057769671294976
Start and End addresses in isSpecialDatatype 1 94842967018080 94842967149152 2403057771818778624
Start and End addresses in isSpecialDatatype 1 94842967018080 94842967149152 2403057772892520448
Start and End addresses in isSpecialDatatype 1 94842967018080 94842967149152 2403057773966262272
Start and End addresses in isSpecialDatatype 1 94842967018080 94842967149152 2403057775040004096
Start and End addresses in isSpecialDatatype 1 94842967018080 94842967149152 2403057776113745920
Start and End addresses in isSpecialDatatype 1 94842967018080 94842967149152 2403084165466554368
Start and End addresses in isSpecialDatatype 1 94842967018080 94842967149152 2403057778261229568
Start and End addresses in isSpecialDatatype 1 94842967018080 94842967149152 2403057779334971392
Start and End addresses in isSpecialDatatype 1 94842967018080 94842967149152 2403057780408713216
Start and End addresses in isSpecialDatatype 1 94842967018080 94842967149152 2403057781482455040
Start and End addresses in isSpecialDatatype 1 94842967018080 94842967149152 2403057782556196864
Start and End addresses in isSpecialDatatype 1 94842967018080 94842967149152 2403057783629938688
Start and End addresses in isSpecialDatatype 1 94842967018080 94842967149152 2403057784703680512
Start and End addresses in isSpecialDatatype 1 94842967018080 94842967149152 2403057785777422336
Start and End addresses in isSpecialDatatype 1 94842967018080 94842967149152 2403057786851164160
Start and End addresses in isSpecialDatatype 1 94842967018080 94842967149152 2403057787924905984
Start and End addresses in isSpecialDatatype 1 94842967018080 94842967149152 2403057788998647808
Start and End addresses in isSpecialDatatype 1 94842967018080 94842967149152 2403057790072389632
Start and End addresses in isSpecialDatatype 1 94842967018080 94842967149152 2403057791146131456
Start and End addresses in isSpecialDatatype 1 94842967018080 94842967149152 2403057792219873280
Start and End addresses in isSpecialDatatype 1 94842967018080 94842967149152 2403057793293615104
Start and End addresses in isSpecialDatatype 1 94842967018080 94842967149152 2403057794367356928
Start and End addresses in isSpecialDatatype 1 94842967018080 94842967149152 2403057795441098752
Start and End addresses in isSpecialDatatype 1 94842967018080 94842967149152 2403057796514840576
Start and End addresses in isSpecialDatatype 1 94842967018080 94842967149152 2403057797588582400
Start and End addresses in isSpecialDatatype 1 94842967018080 94842967149152 2403057798662324224
Start and End addresses in isSpecialDatatype 1 94842967018080 94842967149152 2403057799736066048
Start and End addresses in isSpecialDatatype 1 94842967018080 94842967149152 2403057800809807872
Start and End addresses in isSpecialDatatype 1 94842967018080 94842967149152 2403057801883549696
Start and End addresses in isSpecialDatatype 1 94842967018080 94842967149152 2403057802957291520
Start and End addresses in isSpecialDatatype 1 94842967018080 94842967149152 2403057804031033344
Start and End addresses in isSpecialDatatype 1 94842967018080 94842967149152 2403057805104775168
Start and End addresses in isSpecialDatatype 1 94842967018080 94842967149152 2403057806178516992
Start and End addresses in isSpecialDatatype 1 94842967018080 94842967149152 2403057807252258816
Start and End addresses in isSpecialDatatype 1 94842967018080 94842967149152 2403057808326000640
Start and End addresses in isSpecialDatatype 1 94842967018080 94842967149152 2403057809399742464
Start and End addresses in isSpecialDatatype 1 94842967018080 94842967149152 2403057810473484288
Start and End addresses in isSpecialDatatype 1 94842967018080 94842967149152 2403057811547226112
Start and End addresses in isSpecialDatatype 1 94842967018080 94842967149152 2403057812620967936
Start and End addresses in isSpecialDatatype 1 94842967018080 94842967149152 2403057813694709760
Start and End addresses in isSpecialDatatype 1 94842967018080 94842967149152 2403057814768451584
Start and End addresses in isSpecialDatatype 1 94842967018080 94842967149152 2403057815842193408
Start and End addresses in isSpecialDatatype 1 94842967018080 94842967149152 2403057816915935232
Start and End addresses in isSpecialDatatype 1 94842967018080 94842967149152 2403057817989677056
Start and End addresses in isSpecialDatatype 1 94842967018080 94842967149152 2403057819063418880
Start and End addresses in isSpecialDatatype 1 94842967018080 94842967149152 2403057820137160704
Start and End addresses in isSpecialDatatype 1 94842967018080 94842967149152 2403057821210902528
Start and End addresses in isSpecialDatatype 1 94842967018080 94842967149152 2403057822284644352
Start and End addresses in isSpecialDatatype 1 94842967018080 94842967149152 2403057823358386176
Start and End addresses in isSpecialDatatype 1 94842967018080 94842967149152 2403057824432128000
Start and End addresses in isSpecialDatatype 1 94842967018080 94842967149152 2403057825505869824
Start and End addresses in isSpecialDatatype 1 94842967018080 94842967149152 2403057826579611648
Start and End addresses in isSpecialDatatype 1 94842967018080 94842967149152 2403057827653353472
Start and End addresses in isSpecialDatatype 1 94842967018080 94842967149152 2403057828727095296
Start and End addresses in isSpecialDatatype 1 94842967018080 94842967149152 2403057829800837120
Start and End addresses in isSpecialDatatype 1 94842967018080 94842967149152 2403057830874578944
Start and End addresses in isSpecialDatatype 1 94842967018080 94842967149152 2403057831948320768
Start and End addresses in isSpecialDatatype 1 94842967018080 94842967149152 2403057833022062592
Start and End addresses in isSpecialDatatype 1 94842967018080 94842967149152 2403057834095804416
Start and End addresses in isSpecialDatatype 1 94842967018080 94842967149152 2403057835169546240
Start and End addresses in isSpecialDatatype 1 94842967018080 94842967149152 2403057836243288064
Start and End addresses in isSpecialDatatype 1 94842967018080 94842967149152 2403057838390771712
Start and End addresses in isSpecialDatatype 1 94842967018080 94842967149152 2403057837317029888
Start and End addresses in isSpecialDatatype 1 94842967018080 94842967149152 2403057839464513536
Start and End addresses in isSpecialDatatype 1 94842967018080 94842967149152 2403057840538255360
Start and End addresses in isSpecialDatatype 1 94842967018080 94842967149152 2403057841611997184
Start and End addresses in isSpecialDatatype 1 94842967018080 94842967149152 2403057842685739008
Start and End addresses in isSpecialDatatype 1 94842967018080 94842967149152 2403057843759480832
Start and End addresses in isSpecialDatatype 1 94842967018080 94842967149152 2403057844833222656
Start and End addresses in isSpecialDatatype 1 94842967018080 94842967149152 2403057845906964480
Start and End addresses in isSpecialDatatype 1 94842967018080 94842967149152 2403057846980706304
Start and End addresses in isSpecialDatatype 1 94842967018080 94842967149152 2403057848054448128
Start and End addresses in isSpecialDatatype 1 94842967018080 94842967149152 2403057849128189952
Start and End addresses in isSpecialDatatype 1 94842967018080 94842967149152 2403057850201931776
Start and End addresses in isSpecialDatatype 1 94842967018080 94842967149152 2403057851275673600
Start and End addresses in isSpecialDatatype 1 94842967018080 94842967149152 2403057852349415424
Start and End addresses in isSpecialDatatype 1 94842967018080 94842967149152 2403057853423157248
Start and End addresses in isSpecialDatatype 1 94842967018080 94842967149152 2403057854496899072
Start and End addresses in isSpecialDatatype 1 94842967018080 94842967149152 2403057855570640896
Start and End addresses in isSpecialDatatype 1 94842967018080 94842967149152 2403057856644382720
Start and End addresses in isSpecialDatatype 1 94842967018080 94842967149152 2403057857718124544
Start and End addresses in isSpecialDatatype 1 94842967018080 94842967149152 2403057858791866368
Start and End addresses in isSpecialDatatype 1 94842967018080 94842967149152 2403057859865608192
Start and End addresses in isSpecialDatatype 1 94842967018080 94842967149152 2403057860939350016
Start and End addresses in isSpecialDatatype 1 94842967018080 94842967149152 2403057862013091840
Start and End addresses in isSpecialDatatype 1 94842967018080 94842967149152 2403057863086833664
Start and End addresses in isSpecialDatatype 1 94842967018080 94842967149152 2403057864160575488
Start and End addresses in isSpecialDatatype 1 94842967018080 94842967149152 2403057865234317312
Start and End addresses in isSpecialDatatype 1 94842967018080 94842967149152 2403057866308059136
Start and End addresses in isSpecialDatatype 1 94842967018080 94842967149152 2403057867381800960
Start and End addresses in isSpecialDatatype 1 94842967018080 94842967149152 2403057868455542784
Start and End addresses in isSpecialDatatype 1 94842967018080 94842967149152 2403057869529284608
Start and End addresses in isSpecialDatatype 1 94842967018080 94842967149152 2403057870603026432
Start and End addresses in isSpecialDatatype 1 94842967018080 94842967149152 2403057871676768256
Start and End addresses in isSpecialDatatype 1 94842967018080 94842967149152 2403057873824251904
Start and End addresses in isSpecialDatatype 1 94842967018080 94842967149152 2403057872750510080
Start and End addresses in isSpecialDatatype 1 94842967018080 94842967149152 2403057874897993728
Start and End addresses in isSpecialDatatype 1 94842967018080 94842967149152 2403057875971735552
Start and End addresses in isSpecialDatatype 1 94842967018080 94842967149152 2403057877045477376
Start and End addresses in isSpecialDatatype 1 94842967018080 94842967149152 2403057878119219200
Start and End addresses in isSpecialDatatype 1 94842967018080 94842967149152 2403057879192961024
Start and End addresses in isSpecialDatatype 1 94842967018080 94842967149152 2403057880266702848
Start and End addresses in isSpecialDatatype 1 94842967018080 94842967149152 2403057881340444672
Start and End addresses in isSpecialDatatype 1 94842967018080 94842967149152 2403057883487928320
Start and End addresses in isSpecialDatatype 1 94842967018080 94842967149152 2403057882414186496
Start and End addresses in isSpecialDatatype 1 94842967018080 94842967149152 2403057884561670144
Start and End addresses in isSpecialDatatype 1 94842967018080 94842967149152 2403057885635411968
Start and End addresses in isSpecialDatatype 1 94842967018080 94842967149152 2403057886709153792
Start and End addresses in isSpecialDatatype 1 94842967018080 94842967149152 2403057887782895616
Start and End addresses in isSpecialDatatype 1 94842967018080 94842967149152 2403057888856637440
Start and End addresses in isSpecialDatatype 1 94842967018080 94842967149152 2403057889930379264
Start and End addresses in isSpecialDatatype 1 94842967018080 94842967149152 2403057891004121088
Start and End addresses in isSpecialDatatype 1 94842967018080 94842967149152 2403057892077862912
Start and End addresses in isSpecialDatatype 1 94842967018080 94842967149152 2403057893151604736
Start and End addresses in isSpecialDatatype 1 94842967018080 94842967149152 2403057894225346560
Start and End addresses in isSpecialDatatype 1 94842967018080 94842967149152 2403057895299088384
Start and End addresses in isSpecialDatatype 1 94842967018080 94842967149152 2403057896372830208
Start and End addresses in isSpecialDatatype 1 94842967018080 94842967149152 2403057897446572032
Start and End addresses in isSpecialDatatype 1 94842967018080 94842967149152 2403057898520313856
Start and End addresses in isSpecialDatatype 1 94842967018080 94842967149152 2403057899594055680
Start and End addresses in isSpecialDatatype 1 94842967018080 94842967149152 2403057901741539328
Start and End addresses in isSpecialDatatype 1 94842967018080 94842967149152 2403057900667797504
Start and End addresses in isSpecialDatatype 1 94842967018080 94842967149152 2403057902815281152
Start and End addresses in isSpecialDatatype 1 94842967018080 94842967149152 2403057903889022976
Start and End addresses in isSpecialDatatype 1 94842967018080 94842967149152 2403057904962764800
Start and End addresses in isSpecialDatatype 1 94842967018080 94842967149152 2403057906036506624
Start and End addresses in isSpecialDatatype 1 94842967018080 94842967149152 2403057907110248448
Start and End addresses in isSpecialDatatype 1 94842967018080 94842967149152 2403057908183990272
Start and End addresses in isSpecialDatatype 1 94842967018080 94842967149152 2403057909257732096
Start and End addresses in isSpecialDatatype 1 94842967018080 94842967149152 2403057910331473920
Start and End addresses in isSpecialDatatype 1 94842967018080 94842967149152 2403057911405215744
Start and End addresses in isSpecialDatatype 1 94842967018080 94842967149152 2403057912478957568
Start and End addresses in isSpecialDatatype 1 94842967018080 94842967149152 2403057913552699392
Start and End addresses in isSpecialDatatype 1 94842967018080 94842967149152 2403057914626441216
Start and End addresses in isSpecialDatatype 1 94842967018080 94842967149152 2403057915700183040
Start and End addresses in isSpecialDatatype 1 94842967018080 94842967149152 2403057916773924864
Start and End addresses in isSpecialDatatype 1 94842967018080 94842967149152 2403057917847666688
Start and End addresses in isSpecialDatatype 1 94842967018080 94842967149152 2403057918921408512
Start and End addresses in isSpecialDatatype 1 94842967018080 94842967149152 2403057919995150336
Start and End addresses in isSpecialDatatype 1 94842967018080 94842967149152 2403057921068892160
Start and End addresses in isSpecialDatatype 1 94842967018080 94842967149152 2403057922142633984
Start and End addresses in isSpecialDatatype 1 94842967018080 94842967149152 2403057923216375808
Start and End addresses in isSpecialDatatype 1 94842967018080 94842967149152 2403057924290117632
Start and End addresses in isSpecialDatatype 1 94842967018080 94842967149152 2403057925363859456
Start and End addresses in isSpecialDatatype 1 94842967018080 94842967149152 2403057926437601280
Start and End addresses in isSpecialDatatype 1 94842967018080 94842967149152 2403057927511343104
Start and End addresses in isSpecialDatatype 1 94842967018080 94842967149152 2403057928585084928
Start and End addresses in isSpecialDatatype 1 94842967018080 94842967149152 2403057929658826752
Start and End addresses in isSpecialDatatype 1 94842967018080 94842967149152 2403057930732568576
Start and End addresses in isSpecialDatatype 1 94842967018080 94842967149152 2403057931806310400
Start and End addresses in isSpecialDatatype 1 94842967018080 94842967149152 2403057932880052224
Start and End addresses in isSpecialDatatype 1 94842967018080 94842967149152 2403057933953794048
Start and End addresses in isSpecialDatatype 1 94842967018080 94842967149152 2403057935027535872
Start and End addresses in isSpecialDatatype 1 94842967018080 94842967149152 2403057936101277696
Start and End addresses in isSpecialDatatype 1 94842967018080 94842967149152 2403057937175019520
Start and End addresses in isSpecialDatatype 1 94842967018080 94842967149152 2403057938248761344
Start and End addresses in isSpecialDatatype 1 94842967018080 94842967149152 2403057939322503168
Start and End addresses in isSpecialDatatype 1 94842967018080 94842967149152 2403057940396244992
Start and End addresses in isSpecialDatatype 1 94842967018080 94842967149152 2403057941469986816
Start and End addresses in isSpecialDatatype 1 94842967018080 94842967149152 2403057942543728640
Start and End addresses in isSpecialDatatype 1 94842967018080 94842967149152 2403057943617470464
Start and End addresses in isSpecialDatatype 1 94842967018080 94842967149152 2403057944691212288
Start and End addresses in isSpecialDatatype 1 94842967018080 94842967149152 2403057945764954112
Start and End addresses in isSpecialDatatype 1 94842967018080 94842967149152 2403057946838695936
Start and End addresses in isSpecialDatatype 1 94842967018080 94842967149152 2403057947912437760
Start and End addresses in isSpecialDatatype 1 94842967018080 94842967149152 2403057948986179584
Start and End addresses in isSpecialDatatype 1 94842967018080 94842967149152 2403057950059921408
Start and End addresses in isSpecialDatatype 1 94842967018080 94842967149152 2403057951133663232
Start and End addresses in isSpecialDatatype 1 94842967018080 94842967149152 2403057952207405056
Start and End addresses in isSpecialDatatype 1 94842967018080 94842967149152 2403057953281146880
Start and End addresses in isSpecialDatatype 1 94842967018080 94842967149152 2403057954354888704
Start and End addresses in isSpecialDatatype 1 94842967018080 94842967149152 2403057956502372352
Start and End addresses in isSpecialDatatype 1 94842967018080 94842967149152 2403057955428630528
Start and End addresses in isSpecialDatatype 1 94842967018080 94842967149152 2403057957576114176
Start and End addresses in isSpecialDatatype 1 94842967018080 94842967149152 2403084346928922624
Start and End addresses in isSpecialDatatype 1 94842967018080 94842967149152 2403057959723597824
Start and End addresses in isSpecialDatatype 1 94842967018080 94842967149152 2403057960797339648
Start and End addresses in isSpecialDatatype 1 94842967018080 94842967149152 2403057961871081472
Start and End addresses in isSpecialDatatype 1 94842967018080 94842967149152 2403057962944823296
Start and End addresses in isSpecialDatatype 1 94842967018080 94842967149152 2403057964018565120
Start and End addresses in isSpecialDatatype 1 94842967018080 94842967149152 2403057965092306944
Start and End addresses in isSpecialDatatype 1 94842967018080 94842967149152 2403057966166048768
Start and End addresses in isSpecialDatatype 1 94842967018080 94842967149152 2403057967239790592
Start and End addresses in isSpecialDatatype 1 94842967018080 94842967149152 2403057968313532416
Start and End addresses in isSpecialDatatype 1 94842967018080 94842967149152 2403057969387274240
Start and End addresses in isSpecialDatatype 1 94842967018080 94842967149152 2403057970461016064
Start and End addresses in isSpecialDatatype 1 94842967018080 94842967149152 2403057971534757888
[...]
Start and End addresses in isSpecialDatatype 1 94842967018080 94842967149152 2403100302732427264
Start and End addresses in isSpecialDatatype 1 94842967018080 94842967149152 2403100303806169088
Start and End addresses in isSpecialDatatype 1 94842967018080 94842967149152 2403100304879910912
Start and End addresses in isSpecialDatatype 1 94842967018080 94842967149152 2403100305953652736
Start and End addresses in isSpecialDatatype 1 94842967018080 94842967149152 2403100307027394560
Start and End addresses in isSpecialDatatype 1 94842967018080 94842967149152 2403100308101136384
Start and End addresses in isSpecialDatatype 1 94842967018080 94842967149152 2403100309174878208
Start and End addresses in isSpecialDatatype 1 94842967018080 94842967149152 2403100310248620032
Start and End addresses in isSpecialDatatype 1 94842967018080 94842967149152 2403100311322361856
Start and End addresses in isSpecialDatatype 1 94842967018080 94842967149152 2403100312396103680
Start and End addresses in isSpecialDatatype 1 94842967018080 94842967149152 2403100313469845504
Start and End addresses in isSpecialDatatype 1 94842967018080 94842967149152 2403100314543587328
Start and End addresses in isSpecialDatatype 1 94842967018080 94842967149152 2403100315617329152
Start and End addresses in isSpecialDatatype 1 94842967018080 94842967149152 2403100316691070976
Start and End addresses in isSpecialDatatype 1 94842967018080 94842967149152 2403100317764812800
Start and End addresses in isSpecialDatatype 1 94842967018080 94842967149152 2403100318838554624
Start and End addresses in isSpecialDatatype 1 94842967018080 94842967149152 2403100319912296448
Start and End addresses in isSpecialDatatype 1 94842967018080 94842967149152 2403100320986038272
Start and End addresses in isSpecialDatatype 1 94842967018080 94842967149152 2403100322059780096
Start and End addresses in isSpecialDatatype 1 94842967018080 94842967149152 2403100323133521920
Start and End addresses in isSpecialDatatype 1 94842967018080 94842967149152 2403100324207263744
Start and End addresses in isSpecialDatatype 1 94842967018080 94842967149152 2403100325281005568
Start and End addresses in isSpecialDatatype 1 94842967018080 94842967149152 2403100326354747392
Start and End addresses in isSpecialDatatype 1 94842967018080 94842967149152 2403100327428489216
Start and End addresses in isSpecialDatatype 1 94842967018080 94842967149152 2403100328502231040
Start and End addresses in isSpecialDatatype 1 94842967018080 94842967149152 2403100329575972864
Start and End addresses in isSpecialDatatype 1 94842967018080 94842967149152 2403100330649714688
Start and End addresses in isSpecialDatatype 1 94842967018080 94842967149152 2403100331723456512
Start and End addresses in isSpecialDatatype 1 94842967018080 94842967149152 2403100332797198336
Start and End addresses in isSpecialDatatype 1 94842967018080 94842967149152 2403100333870940160
Start and End addresses in isSpecialDatatype 1 94842967018080 94842967149152 2403100334944681984
Start and End addresses in isSpecialDatatype 1 94842967018080 94842967149152 2403100336018423808
Start and End addresses in isSpecialDatatype 1 94842967018080 94842967149152 2403100337092165632
Start and End addresses in isSpecialDatatype 1 94842967018080 94842967149152 2403100338165907456
Start and End addresses in isSpecialDatatype 1 94842967018080 94842967149152 2403100339239649280
Start and End addresses in isSpecialDatatype 1 94842967018080 94842967149152 2403100340313391104
Start and End addresses in isSpecialDatatype 1 94842967018080 94842967149152 2403100341387132928
Start and End addresses in isSpecialDatatype 1 94842967018080 94842967149152 2403100342460874752
Start and End addresses in isSpecialDatatype 1 94842967018080 94842967149152 2403100343534616576
Start and End addresses in isSpecialDatatype 1 94842967018080 94842967149152 2403100344608358400
Start and End addresses in isSpecialDatatype 1 94842967018080 94842967149152 2403100345682100224
Start and End addresses in isSpecialDatatype 1 94842967018080 94842967149152 2403100346755842048
Start and End addresses in isSpecialDatatype 1 94842967018080 94842967149152 2403100347829583872
Start and End addresses in isSpecialDatatype 1 94842967018080 94842967149152 2403100348903325696
Start and End addresses in isSpecialDatatype 1 94842967018080 94842967149152 2403100349977067520
Start and End addresses in isSpecialDatatype 1 94842967018080 94842967149152 2403100351050809344
Start and End addresses in isSpecialDatatype 1 94842967018080 94842967149152 2403100352124551168
Start and End addresses in isSpecialDatatype 1 94842967018080 94842967149152 2403100353198292992
Start and End addresses in isSpecialDatatype 1 94842967018080 94842967149152 2403100354272034816
Start and End addresses in isSpecialDatatype 1 94842967018080 94842967149152 2403100355345776640
Start and End addresses in isSpecialDatatype 1 94842967018080 94842967149152 2403100356419518464
Start and End addresses in isSpecialDatatype 1 94842967018080 94842967149152 2403100357493260288
Start and End addresses in isSpecialDatatype 1 94842967018080 94842967149152 2403100358567002112
Start and End addresses in isSpecialDatatype 1 94842967018080 94842967149152 2403100359640743936
Start and End addresses in isSpecialDatatype 1 94842967018080 94842967149152 2403100360714485760
Start and End addresses in isSpecialDatatype 1 94842967018080 94842967149152 2403100361788227584
Start and End addresses in isSpecialDatatype 1 94842967018080 94842967149152 2403100362861969408
Start and End addresses in isSpecialDatatype 1 94842967018080 94842967149152 2403100363935711232
Start and End addresses in isSpecialDatatype 1 94842967018080 94842967149152 2403100365009453056
Start and End addresses in isSpecialDatatype 1 94842967018080 94842967149152 2403100366083194880
Start and End addresses in isSpecialDatatype 1 94842967018080 94842967149152 2403100367156936704
Start and End addresses in isSpecialDatatype 1 94842967018080 94842967149152 2403100368230678528
Start and End addresses in isSpecialDatatype 1 94842967018080 94842967149152 2403100369304420352
Start and End addresses in isSpecialDatatype 1 94842967018080 94842967149152 2403100370378162176
Start and End addresses in isSpecialDatatype 1 94842967018080 94842967149152 2403100371451904000
Start and End addresses in isSpecialDatatype 1 94842967018080 94842967149152 2403100372525645824
Start and End addresses in isSpecialDatatype 1 94842967018080 94842967149152 2403100373599387648
Start and End addresses in isSpecialDatatype 1 94842967018080 94842967149152 2403100374673129472
Start and End addresses in isSpecialDatatype 1 94842967018080 94842967149152 2403100375746871296
Start and End addresses in isSpecialDatatype 1 94842967018080 94842967149152 2403100376820613120
Start and End addresses in isSpecialDatatype 1 94842967018080 94842967149152 2403100377894354944
Start and End addresses in isSpecialDatatype 1 94842967018080 94842967149152 2403100378968096768
Start and End addresses in isSpecialDatatype 1 94842967018080 94842967149152 2403100380041838592
Start and End addresses in isSpecialDatatype 1 94842967018080 94842967149152 2403100381115580416
Start and End addresses in isSpecialDatatype 1 94842967018080 94842967149152 2403100382189322240
Start and End addresses in isSpecialDatatype 1 94842967018080 94842967149152 2403100383263064064
Start and End addresses in isSpecialDatatype 1 94842967018080 94842967149152 2403100384336805888
Start and End addresses in isSpecialDatatype 1 94842967018080 94842967149152 2403100385410547712
Start and End addresses in isSpecialDatatype 1 94842967018080 94842967149152 2403100386484289536
Start and End addresses in isSpecialDatatype 1 94842967018080 94842967149152 2403100387558031360
Start and End addresses in isSpecialDatatype 1 94842967018080 94842967149152 2403100388631773184
Start and End addresses in isSpecialDatatype 1 94842967018080 94842967149152 2403100389705515008
Start and End addresses in isSpecialDatatype 1 94842967018080 94842967149152 2403100390779256832
Start and End addresses in isSpecialDatatype 1 94842967018080 94842967149152 2403100391852998656
Start and End addresses in isSpecialDatatype 1 94842967018080 94842967149152 2403100392926740480
Start and End addresses in isSpecialDatatype 1 94842967018080 94842967149152 2403100394000482304
Start and End addresses in isSpecialDatatype 1 94842967018080 94842967149152 2403100395074224128
Start and End addresses in isSpecialDatatype 1 94842967018080 94842967149152 2403100396147965952
Start and End addresses in isSpecialDatatype 1 94842967018080 94842967149152 2403100397221707776
Start and End addresses in isSpecialDatatype 1 94842967018080 94842967149152 2403100398295449600
Start and End addresses in isSpecialDatatype 1 94842967018080 94842967149152 2403100399369191424
Start and End addresses in isSpecialDatatype 1 94842967018080 94842967149152 2403100400442933248
Start and End addresses in isSpecialDatatype 1 94842967018080 94842967149152 2403100401516675072
Start and End addresses in isSpecialDatatype 1 94842967018080 94842967149152 2403100402590416896
Start and End addresses in isSpecialDatatype 1 94842967018080 94842967149152 2403100403664158720
Start and End addresses in isSpecialDatatype 1 94842967018080 94842967149152 2403100404737900544
Start and End addresses in isSpecialDatatype 1 94842967018080 94842967149152 2403100405811642368
Start and End addresses in isSpecialDatatype 1 94842967018080 94842967149152 2403100406885384192
Start and End addresses in isSpecialDatatype 1 94842967018080 94842967149152 2403100407959126016
Start and End addresses in isSpecialDatatype 1 94842967018080 94842967149152 2403100409032867840
Start and End addresses in isSpecialDatatype 1 94842967018080 94842967149152 2403100410106609664
Start and End addresses in isSpecialDatatype 1 94842967018080 94842967149152 2403100411180351488
Start and End addresses in isSpecialDatatype 1 94842967018080 94842967149152 2403100412254093312
Start and End addresses in isSpecialDatatype 1 94842967018080 94842967149152 2403100413327835136
Start and End addresses in isSpecialDatatype 1 94842967018080 94842967149152 2403100414401576960
Start and End addresses in isSpecialDatatype 1 94842967018080 94842967149152 2403100415475318784
Start and End addresses in isSpecialDatatype 1 94842967018080 94842967149152 2403100416549060608
Start and End addresses in isSpecialDatatype 1 94842967018080 94842967149152 2403100417622802432
Start and End addresses in isSpecialDatatype 1 94842967018080 94842967149152 2403100418696544256
Start and End addresses in isSpecialDatatype 1 94842967018080 94842967149152 2403100419770286080
Start and End addresses in isSpecialDatatype 1 94842967018080 94842967149152 2403100420844027904
Start and End addresses in isSpecialDatatype 1 94842967018080 94842967149152 2403100421917769728
Start and End addresses in isSpecialDatatype 1 94842967018080 94842967149152 2403100422991511552
Start and End addresses in isSpecialDatatype 1 94842967018080 94842967149152 2403100424065253376
Start and End addresses in isSpecialDatatype 1 94842967018080 94842967149152 2403100425138995200
Start and End addresses in isSpecialDatatype 1 94842967018080 94842967149152 2403100426212737024
Start and End addresses in isSpecialDatatype 1 94842967018080 94842967149152 2403100427286478848
Start and End addresses in isSpecialDatatype 1 94842967018080 94842967149152 2403100428360220672
Start and End addresses in isSpecialDatatype 1 94842967018080 94842967149152 2403100429433962496
Start and End addresses in isSpecialDatatype 1 94842967018080 94842967149152 2403100430507704320
Start and End addresses in isSpecialDatatype 1 94842967018080 94842967149152 2403100431581446144
Start and End addresses in isSpecialDatatype 1 94842967018080 94842967149152 2403100432655187968
Start and End addresses in isSpecialDatatype 1 94842967018080 94842967149152 2403100433728929792
Start and End addresses in isSpecialDatatype 1 94842967018080 94842967149152 2403100434802671616
Start and End addresses in isSpecialDatatype 1 94842967018080 94842967149152 2403100435876413440
Start and End addresses in isSpecialDatatype 1 94842967018080 94842967149152 2403100436950155264
Start and End addresses in isSpecialDatatype 1 94842967018080 94842967149152 2403100438023897088
Start and End addresses in isSpecialDatatype 1 94842967018080 94842967149152 2403100439097638912
Start and End addresses in isSpecialDatatype 1 94842967018080 94842967149152 2403100440171380736
Start and End addresses in isSpecialDatatype 1 94842967018080 94842967149152 2403100441245122560
Start and End addresses in isSpecialDatatype 1 94842967018080 94842967149152 2403100442318864384
Start and End addresses in isSpecialDatatype 1 94842967018080 94842967149152 2403100443392606208
Start and End addresses in isSpecialDatatype 1 94842967018080 94842967149152 2403100444466348032
Start and End addresses in isSpecialDatatype 1 94842967018080 94842967149152 2403100445540089856
Start and End addresses in isSpecialDatatype 1 94842967018080 94842967149152 2403100446613831680
Start and End addresses in isSpecialDatatype 1 94842967018080 94842967149152 2403100447687573504
Start and End addresses in isSpecialDatatype 1 94842967018080 94842967149152 2403100448761315328
Start and End addresses in isSpecialDatatype 1 94842967018080 94842967149152 2403100449835057152
Start and End addresses in isSpecialDatatype 1 94842967018080 94842967149152 2403100450908798976
Start and End addresses in isSpecialDatatype 1 94842967018080 94842967149152 2403100451982540800
Start and End addresses in isSpecialDatatype 1 94842967018080 94842967149152 2403100453056282624
Start and End addresses in isSpecialDatatype 1 94842967018080 94842967149152 2403100454130024448
Start and End addresses in isSpecialDatatype 1 94842967018080 94842967149152 2403100455203766272
Start and End addresses in isSpecialDatatype 1 94842967018080 94842967149152 2403100456277508096
Start and End addresses in isSpecialDatatype 1 94842967018080 94842967149152 2403100457351249920
Start and End addresses in isSpecialDatatype 1 94842967018080 94842967149152 2403100458424991744
Start and End addresses in isSpecialDatatype 1 94842967018080 94842967149152 2403100459498733568
Start and End addresses in isSpecialDatatype 1 94842967018080 94842967149152 2403100460572475392
Start and End addresses in isSpecialDatatype 1 94842967018080 94842967149152 2403100461646217216
Start and End addresses in isSpecialDatatype 1 94842967018080 94842967149152 2403100462719959040
Start and End addresses in isSpecialDatatype 1 94842967018080 94842967149152 2403100463793700864
Start and End addresses in isSpecialDatatype 1 94842967018080 94842967149152 2403100464867442688
Start and End addresses in isSpecialDatatype 1 94842967018080 94842967149152 2403100465941184512
Start and End addresses in isSpecialDatatype 1 94842967018080 94842967149152 2403100467014926336
Start and End addresses in isSpecialDatatype 1 94842967018080 94842967149152 2403100468088668160
Start and End addresses in isSpecialDatatype 1 94842967018080 94842967149152 2403100469162409984
Start and End addresses in isSpecialDatatype 1 94842967018080 94842967149152 2403100470236151808
Start and End addresses in isSpecialDatatype 1 94842967018080 94842967149152 2403100471309893632
Start and End addresses in isSpecialDatatype 1 94842967018080 94842967149152 2403100472383635456
Start and End addresses in isSpecialDatatype 1 94842967018080 94842967149152 2403100473457377280
Start and End addresses in isSpecialDatatype 1 94842967018080 94842967149152 2403100474531119104
Start and End addresses in isSpecialDatatype 1 94842967018080 94842967149152 2403100475604860928
Start and End addresses in isSpecialDatatype 1 94842967018080 94842967149152 2403100476678602752
Start and End addresses in isSpecialDatatype 1 94842967018080 94842967149152 2403100477752344576
Start and End addresses in isSpecialDatatype 1 94842967018080 94842967149152 2403100478826086400
Start and End addresses in isSpecialDatatype 1 94842967018080 94842967149152 2403100479899828224
Start and End addresses in isSpecialDatatype 1 94842967018080 94842967149152 2403100480973570048
Start and End addresses in isSpecialDatatype 1 94842967018080 94842967149152 2403100482047311872
Start and End addresses in isSpecialDatatype 1 94842967018080 94842967149152 2403100483121053696
Start and End addresses in isSpecialDatatype 1 94842967018080 94842967149152 2403100484194795520
Start and End addresses in isSpecialDatatype 1 94842967018080 94842967149152 2403100485268537344
Start and End addresses in isSpecialDatatype 1 94842967018080 94842967149152 2403100486342279168
Start and End addresses in isSpecialDatatype 1 94842967018080 94842967149152 2403100487416020992
Start and End addresses in isSpecialDatatype 1 94842967018080 94842967149152 2403100488489762816
Start and End addresses in isSpecialDatatype 1 94842967018080 94842967149152 2403100489563504640
Start and End addresses in isSpecialDatatype 1 94842967018080 94842967149152 2403100490637246464
Start and End addresses in isSpecialDatatype 1 94842967018080 94842967149152 2403100491710988288
Start and End addresses in isSpecialDatatype 1 94842967018080 94842967149152 2403100492784730112
Start and End addresses in isSpecialDatatype 1 94842967018080 94842967149152 2403100493858471936
Start and End addresses in isSpecialDatatype 1 94842967018080 94842967149152 2403100494932213760
Start and End addresses in isSpecialDatatype 1 94842967018080 94842967149152 2403100496005955584
Start and End addresses in isSpecialDatatype 1 94842967018080 94842967149152 2403100497079697408
Start and End addresses in isSpecialDatatype 1 94842967018080 94842967149152 2403100498153439232
Start and End addresses in isSpecialDatatype 1 94842967018080 94842967149152 2403100499227181056
Start and End addresses in isSpecialDatatype 1 94842967018080 94842967149152 2403100500300922880
Start and End addresses in isSpecialDatatype 1 94842967018080 94842967149152 2403100501374664704
Start and End addresses in isSpecialDatatype 1 94842967018080 94842967149152 2403100502448406528
Start and End addresses in isSpecialDatatype 1 94842967018080 94842967149152 2403100503522148352
Start and End addresses in isSpecialDatatype 1 94842967018080 94842967149152 2403100504595890176
Start and End addresses in isSpecialDatatype 1 94842967018080 94842967149152 2403100505669632000
Start and End addresses in isSpecialDatatype 1 94842967018080 94842967149152 2403100506743373824
Start and End addresses in isSpecialDatatype 1 94842967018080 94842967149152 2403100507817115648
Start and End addresses in isSpecialDatatype 1 94842967018080 94842967149152 2403100508890857472
Start and End addresses in isSpecialDatatype 1 94842967018080 94842967149152 2403100509964599296
Start and End addresses in isSpecialDatatype 1 94842967018080 94842967149152 2403100511038341120
Start and End addresses in isSpecialDatatype 1 94842967018080 94842967149152 2403100512112082944
Start and End addresses in isSpecialDatatype 1 94842967018080 94842967149152 2403100513185824768
Start and End addresses in isSpecialDatatype 1 94842967018080 94842967149152 2403100514259566592
Start and End addresses in isSpecialDatatype 1 94842967018080 94842967149152 2403100515333308416
Start and End addresses in isSpecialDatatype 1 94842967018080 94842967149152 2403100516407050240
Start and End addresses in isSpecialDatatype 1 94842967018080 94842967149152 2403100517480792064
Start and End addresses in isSpecialDatatype 1 94842967018080 94842967149152 2403100518554533888
Start and End addresses in isSpecialDatatype 1 94842967018080 94842967149152 2403100519628275712
Start and End addresses in isSpecialDatatype 1 94842967018080 94842967149152 2403100520702017536
Start and End addresses in isSpecialDatatype 1 94842967018080 94842967149152 2403100521775759360
Start and End addresses in isSpecialDatatype 1 94842967018080 94842967149152 2403100522849501184
Caught signal: 2
