Generate Time:       0.01361
Build Time:          0.00060
uncore.cc: num_nodes4096
[CSR-HYBRID-PREPROCESSING] Time to quantize nghs and compact vertices = 0.000947793
[CSR-HYBRID-PREPROCESSING] Time to convert to offsets matrix = 0.00037262
[CSR-HYBRID-PREPROCESSING] Time to transpose offsets matrix =  0.000104657

*** ChampSim Multicore Out-of-Order Simulator ***

Warmup Instructions: 1000000
Simulation Instructions: 10000000
Number of CPUs: 1
LLC sets: 2048
LLC ways: 16
Off-chip DRAM Size: 4096 MB Channels: 1 Width: 64-bit Data Rate: 3200 MT/s

CPU 0 runs /ChampSim/dpc3_traces/champsim10.trace.xz
CPU 0 Bimodal branch predictor
m_irrregData_startID
potp_llc_repl: checkpoint 1
m_irrregData_startID
potp_llc_repl: checkpoint 1
m_irrregData_startID
potp_llc_repl: checkpoint 1
m_irrregData_startID
potp_llc_repl: checkpoint 1
m_irrregData_startID
potp_llc_repl: checkpoint 1
m_irrregData_startID
potp_llc_repl: checkpoint 1
m_irrregData_startID
potp_llc_repl: checkpoint 1
m_irrregData_startID
potp_llc_repl: checkpoint 1
m_irrregData_startID
potp_llc_repl: checkpoint 1
m_irrregData_startID
potp_llc_repl: checkpoint 1
m_irrregData_startID
potp_llc_repl: checkpoint 1
m_irrregData_startID
potp_llc_repl: checkpoint 1
m_irrregData_startID
potp_llc_repl: checkpoint 1
m_irrregData_startID
potp_llc_repl: checkpoint 1
m_irrregData_startID
potp_llc_repl: checkpoint 1
m_irrregData_startID
potp_llc_repl: checkpoint 1
m_irrregData_startID
potp_llc_repl: checkpoint 1
m_irrregData_startID
potp_llc_repl: checkpoint 1
m_irrregData_startID
potp_llc_repl: checkpoint 1
m_irrregData_startID
potp_llc_repl: checkpoint 1
m_irrregData_startID
potp_llc_repl: checkpoint 1
m_irrregData_startID
potp_llc_repl: checkpoint 1
m_irrregData_startID
potp_llc_repl: checkpoint 1
m_irrregData_startID
potp_llc_repl: checkpoint 1
m_irrregData_startID
potp_llc_repl: checkpoint 1
m_irrregData_startID
potp_llc_repl: checkpoint 1
m_irrregData_startID
potp_llc_repl: checkpoint 1
m_irrregData_startID
potp_llc_repl: checkpoint 1
m_irrregData_startID
potp_llc_repl: checkpoint 1
m_irrregData_startID
potp_llc_repl: checkpoint 1
m_irrregData_startID
potp_llc_repl: checkpoint 1
m_irrregData_startID
potp_llc_repl: checkpoint 1
m_irrregData_startID
potp_llc_repl: checkpoint 1
m_irrregData_startID
potp_llc_repl: checkpoint 1
m_irrregData_startID
potp_llc_repl: checkpoint 1
m_irrregData_startID
potp_llc_repl: checkpoint 1
m_irrregData_startID
potp_llc_repl: checkpoint 1
m_irrregData_startID
potp_llc_repl: checkpoint 1
m_irrregData_startID
potp_llc_repl: checkpoint 1
m_irrregData_startID
potp_llc_repl: checkpoint 1
m_irrregData_startID
potp_llc_repl: checkpoint 1
m_irrregData_startID
potp_llc_repl: checkpoint 1
m_irrregData_startID
potp_llc_repl: checkpoint 1
m_irrregData_startID
potp_llc_repl: checkpoint 1
m_irrregData_startID
potp_llc_repl: checkpoint 1
m_irrregData_startID
potp_llc_repl: checkpoint 1
m_irrregData_startID
potp_llc_repl: checkpoint 1
m_irrregData_startID
potp_llc_repl: checkpoint 1
m_irrregData_startID
potp_llc_repl: checkpoint 1
m_irrregData_startID
potp_llc_repl: checkpoint 1
m_irrregData_startID
potp_llc_repl: checkpoint 1
m_irrregData_startID
potp_llc_repl: checkpoint 1
m_irrregData_startID
potp_llc_repl: checkpoint 1
m_irrregData_startID
potp_llc_repl: checkpoint 1
m_irrregData_startID
potp_llc_repl: checkpoint 1
m_irrregData_startID
potp_llc_repl: checkpoint 1
m_irrregData_startID
potp_llc_repl: checkpoint 1
m_irrregData_startID
potp_llc_repl: checkpoint 1
m_irrregData_startID
potp_llc_repl: checkpoint 1
m_irrregData_startID
potp_llc_repl: checkpoint 1
m_irrregData_startID
potp_llc_repl: checkpoint 1
m_irrregData_startID
potp_llc_repl: checkpoint 1
m_irrregData_startID
potp_llc_repl: checkpoint 1
m_irrregData_startID
potp_llc_repl: checkpoint 1
m_irrregData_startID
potp_llc_repl: checkpoint 1
m_irrregData_startID
potp_llc_repl: checkpoint 1
m_irrregData_startID
potp_llc_repl: checkpoint 1
m_irrregData_startID
potp_llc_repl: checkpoint 1
m_irrregData_startID
potp_llc_repl: checkpoint 1
m_irrregData_startID
potp_llc_repl: checkpoint 1
m_irrregData_startID
potp_llc_repl: checkpoint 1
m_irrregData_startID
potp_llc_repl: checkpoint 1
m_irrregData_startID
potp_llc_repl: checkpoint 1
m_irrregData_startID
potp_llc_repl: checkpoint 1
m_irrregData_startID
potp_llc_repl: checkpoint 1
m_irrregData_startID
potp_llc_repl: checkpoint 1
m_irrregData_startID
potp_llc_repl: checkpoint 1
m_irrregData_startID
potp_llc_repl: checkpoint 1
m_irrregData_startID
potp_llc_repl: checkpoint 1
m_irrregData_startID
potp_llc_repl: checkpoint 1
m_irrregData_startID
potp_llc_repl: checkpoint 1
m_irrregData_startID
potp_llc_repl: checkpoint 1
m_irrregData_startID
potp_llc_repl: checkpoint 1
m_irrregData_startID
potp_llc_repl: checkpoint 1
m_irrregData_startID
potp_llc_repl: checkpoint 1
m_irrregData_startID
potp_llc_repl: checkpoint 1
m_irrregData_startID
potp_llc_repl: checkpoint 1
m_irrregData_startID
potp_llc_repl: checkpoint 1
m_irrregData_startID
potp_llc_repl: checkpoint 1
m_irrregData_startID
potp_llc_repl: checkpoint 1
m_irrregData_startID
potp_llc_repl: checkpoint 1
m_irrregData_startID
potp_llc_repl: checkpoint 1
m_irrregData_startID
potp_llc_repl: checkpoint 1
m_irrregData_startID
potp_llc_repl: checkpoint 1
m_irrregData_startID
potp_llc_repl: checkpoint 1
m_irrregData_startID
potp_llc_repl: checkpoint 1
m_irrregData_startID
potp_llc_repl: checkpoint 1
m_irrregData_startID
potp_llc_repl: checkpoint 1
m_irrregData_startID
potp_llc_repl: checkpoint 1
m_irrregData_startID
potp_llc_repl: checkpoint 1
m_irrregData_startID
potp_llc_repl: checkpoint 1
m_irrregData_startID
potp_llc_repl: checkpoint 1
m_irrregData_startID
potp_llc_repl: checkpoint 1
m_irrregData_startID
potp_llc_repl: checkpoint 1
m_irrregData_startID
potp_llc_repl: checkpoint 1
m_irrregData_startID
potp_llc_repl: checkpoint 1
m_irrregData_startID
potp_llc_repl: checkpoint 1
m_irrregData_startID
potp_llc_repl: checkpoint 1
m_irrregData_startID
potp_llc_repl: checkpoint 1
m_irrregData_startID
potp_llc_repl: checkpoint 1
m_irrregData_startID
potp_llc_repl: checkpoint 1
m_irrregData_startID
potp_llc_repl: checkpoint 1
m_irrregData_startID
potp_llc_repl: checkpoint 1
m_irrregData_startID
potp_llc_repl: checkpoint 1
m_irrregData_startID
potp_llc_repl: checkpoint 1
m_irrregData_startID
potp_llc_repl: checkpoint 1
m_irrregData_startID
potp_llc_repl: checkpoint 1
m_irrregData_startID
potp_llc_repl: checkpoint 1
m_irrregData_startID
potp_llc_repl: checkpoint 1
m_irrregData_startID
potp_llc_repl: checkpoint 1
m_irrregData_startID
potp_llc_repl: checkpoint 1
m_irrregData_startID
potp_llc_repl: checkpoint 1
m_irrregData_startID
potp_llc_repl: checkpoint 1
m_irrregData_startID
potp_llc_repl: checkpoint 1
m_irrregData_startID
potp_llc_repl: checkpoint 1
m_irrregData_startID
potp_llc_repl: checkpoint 1
m_irrregData_startID
potp_llc_repl: checkpoint 1
m_irrregData_startID
potp_llc_repl: checkpoint 1
m_irrregData_startID
potp_llc_repl: checkpoint 1
m_irrregData_startID
potp_llc_repl: checkpoint 1
m_irrregData_startID
potp_llc_repl: checkpoint 1
m_irrregData_startID
potp_llc_repl: checkpoint 1
m_irrregData_startID
potp_llc_repl: checkpoint 1
m_irrregData_startID
potp_llc_repl: checkpoint 1
m_irrregData_startID
potp_llc_repl: checkpoint 1
m_irrregData_startID
potp_llc_repl: checkpoint 1
m_irrregData_startID
potp_llc_repl: checkpoint 1
m_irrregData_startID
potp_llc_repl: checkpoint 1
m_irrregData_startID
potp_llc_repl: checkpoint 1
m_irrregData_startID
potp_llc_repl: checkpoint 1
m_irrregData_startID
potp_llc_repl: checkpoint 1
m_irrregData_startID
potp_llc_repl: checkpoint 1
m_irrregData_startID
potp_llc_repl: checkpoint 1
m_irrregData_startID
potp_llc_repl: checkpoint 1
m_irrregData_startID
potp_llc_repl: checkpoint 1
m_irrregData_startID
potp_llc_repl: checkpoint 1
m_irrregData_startID
potp_llc_repl: checkpoint 1
m_irrregData_startID
potp_llc_repl: checkpoint 1
m_irrregData_startID
potp_llc_repl: checkpoint 1
m_irrregData_startID
potp_llc_repl: checkpoint 1
m_irrregData_startID
potp_llc_repl: checkpoint 1
m_irrregData_startID
potp_llc_repl: checkpoint 1
m_irrregData_startID
potp_llc_repl: checkpoint 1
m_irrregData_startID
potp_llc_repl: checkpoint 1
m_irrregData_startID
potp_llc_repl: checkpoint 1
m_irrregData_startID
potp_llc_repl: checkpoint 1
m_irrregData_startID
potp_llc_repl: checkpoint 1
m_irrregData_startID
potp_llc_repl: checkpoint 1
m_irrregData_startID
potp_llc_repl: checkpoint 1
m_irrregData_startID
potp_llc_repl: checkpoint 1
m_irrregData_startID
potp_llc_repl: checkpoint 1
m_irrregData_startID
potp_llc_repl: checkpoint 1
m_irrregData_startID
potp_llc_repl: checkpoint 1
m_irrregData_startID
potp_llc_repl: checkpoint 1
m_irrregData_startID
potp_llc_repl: checkpoint 1
m_irrregData_startID
potp_llc_repl: checkpoint 1
m_irrregData_startID
potp_llc_repl: checkpoint 1
m_irrregData_startID
potp_llc_repl: checkpoint 1
m_irrregData_startID
potp_llc_repl: checkpoint 1
m_irrregData_startID
potp_llc_repl: checkpoint 1
m_irrregData_startID
potp_llc_repl: checkpoint 1
m_irrregData_startID
potp_llc_repl: checkpoint 1
m_irrregData_startID
potp_llc_repl: checkpoint 1
m_irrregData_startID
potp_llc_repl: checkpoint 1
m_irrregData_startID
potp_llc_repl: checkpoint 1
m_irrregData_startID
potp_llc_repl: checkpoint 1
m_irrregData_startID
potp_llc_repl: checkpoint 1
m_irrregData_startID
potp_llc_repl: checkpoint 1
m_irrregData_startID
potp_llc_repl: checkpoint 1
m_irrregData_startID
potp_llc_repl: checkpoint 1
m_irrregData_startID
potp_llc_repl: checkpoint 1
m_irrregData_startID
potp_llc_repl: checkpoint 1
m_irrregData_startID
potp_llc_repl: checkpoint 1
m_irrregData_startID
potp_llc_repl: checkpoint 1
m_irrregData_startID
potp_llc_repl: checkpoint 1
m_irrregData_startID
potp_llc_repl: checkpoint 1
m_irrregData_startID
potp_llc_repl: checkpoint 1
m_irrregData_startID
potp_llc_repl: checkpoint 1
m_irrregData_startID
potp_llc_repl: checkpoint 1
m_irrregData_startID
potp_llc_repl: checkpoint 1
m_irrregData_startID
potp_llc_repl: checkpoint 1
m_irrregData_startID
potp_llc_repl: checkpoint 1
m_irrregData_startID
potp_llc_repl: checkpoint 1
m_irrregData_startID
potp_llc_repl: checkpoint 1
m_irrregData_startID
potp_llc_repl: checkpoint 1
m_irrregData_startID
potp_llc_repl: checkpoint 1
m_irrregData_startID
potp_llc_repl: checkpoint 1
m_irrregData_startID
potp_llc_repl: checkpoint 1
m_irrregData_startID
potp_llc_repl: checkpoint 1
m_irrregData_startID
potp_llc_repl: checkpoint 1
m_irrregData_startID
potp_llc_repl: checkpoint 1
m_irrregData_startID
potp_llc_repl: checkpoint 1
m_irrregData_startID
potp_llc_repl: checkpoint 1
m_irrregData_startID
potp_llc_repl: checkpoint 1
m_irrregData_startID
potp_llc_repl: checkpoint 1
m_irrregData_startID
potp_llc_repl: checkpoint 1
m_irrregData_startID
potp_llc_repl: checkpoint 1
m_irrregData_startID
potp_llc_repl: checkpoint 1
m_irrregData_startID
potp_llc_repl: checkpoint 1
m_irrregData_startID
potp_llc_repl: checkpoint 1
m_irrregData_startID
potp_llc_repl: checkpoint 1
m_irrregData_startID
potp_llc_repl: checkpoint 1
m_irrregData_startID
potp_llc_repl: checkpoint 1
m_irrregData_startID
potp_llc_repl: checkpoint 1
m_irrregData_startID
potp_llc_repl: checkpoint 1
m_irrregData_startID
potp_llc_repl: checkpoint 1
m_irrregData_startID
potp_llc_repl: checkpoint 1
m_irrregData_startID
potp_llc_repl: checkpoint 1
m_irrregData_startID
potp_llc_repl: checkpoint 1
m_irrregData_startID
potp_llc_repl: checkpoint 1
m_irrregData_startID
potp_llc_repl: checkpoint 1
m_irrregData_startID
potp_llc_repl: checkpoint 1
m_irrregData_startID
potp_llc_repl: checkpoint 1
m_irrregData_startID
potp_llc_repl: checkpoint 1
m_irrregData_startID
potp_llc_repl: checkpoint 1
m_irrregData_startID
potp_llc_repl: checkpoint 1
m_irrregData_startID
potp_llc_repl: checkpoint 1
m_irrregData_startID
potp_llc_repl: checkpoint 1
m_irrregData_startID
potp_llc_repl: checkpoint 1
m_irrregData_startID
potp_llc_repl: checkpoint 1
m_irrregData_startID
potp_llc_repl: checkpoint 1
m_irrregData_startID
potp_llc_repl: checkpoint 1
m_irrregData_startID
potp_llc_repl: checkpoint 1
m_irrregData_startID
potp_llc_repl: checkpoint 1
m_irrregData_startID
potp_llc_repl: checkpoint 1
m_irrregData_startID
potp_llc_repl: checkpoint 1
m_irrregData_startID
potp_llc_repl: checkpoint 1
m_irrregData_startID
potp_llc_repl: checkpoint 1
m_irrregData_startID
potp_llc_repl: checkpoint 1
m_irrregData_startID
potp_llc_repl: checkpoint 1
m_irrregData_startID
potp_llc_repl: checkpoint 1
m_irrregData_startID
potp_llc_repl: checkpoint 1
m_irrregData_startID
potp_llc_repl: checkpoint 1
m_irrregData_startID
potp_llc_repl: checkpoint 1
m_irrregData_startID
potp_llc_repl: checkpoint 1
m_irrregData_startID
potp_llc_repl: checkpoint 1
m_irrregData_startID
potp_llc_repl: checkpoint 1
m_irrregData_startID
potp_llc_repl: checkpoint 1
m_irrregData_startID
potp_llc_repl: checkpoint 1
m_irrregData_startID
potp_llc_repl: checkpoint 1
m_irrregData_startID
potp_llc_repl: checkpoint 1
m_irrregData_startID
potp_llc_repl: checkpoint 1
m_irrregData_startID
potp_llc_repl: checkpoint 1
m_irrregData_startID
potp_llc_repl: checkpoint 1
m_irrregData_startID
potp_llc_repl: checkpoint 1
m_irrregData_startID
potp_llc_repl: checkpoint 1
m_irrregData_startID
potp_llc_repl: checkpoint 1
m_irrregData_startID
potp_llc_repl: checkpoint 1
m_irrregData_startID
potp_llc_repl: checkpoint 1
m_irrregData_startID
potp_llc_repl: checkpoint 1
m_irrregData_startID
potp_llc_repl: checkpoint 1
m_irrregData_startID
potp_llc_repl: checkpoint 1
m_irrregData_startID
potp_llc_repl: checkpoint 1
m_irrregData_startID
potp_llc_repl: checkpoint 1
m_irrregData_startID
potp_llc_repl: checkpoint 1
m_irrregData_startID
potp_llc_repl: checkpoint 1
m_irrregData_startID
potp_llc_repl: checkpoint 1
m_irrregData_startID
potp_llc_repl: checkpoint 1
m_irrregData_startID
potp_llc_repl: checkpoint 1
m_irrregData_startID
potp_llc_repl: checkpoint 1
m_irrregData_startID
potp_llc_repl: checkpoint 1
m_irrregData_startID
potp_llc_repl: checkpoint 1
m_irrregData_startID
potp_llc_repl: checkpoint 1
m_irrregData_startID
potp_llc_repl: checkpoint 1
m_irrregData_startID
potp_llc_repl: checkpoint 1
m_irrregData_startID
potp_llc_repl: checkpoint 1
m_irrregData_startID
potp_llc_repl: checkpoint 1
m_irrregData_startID
potp_llc_repl: checkpoint 1
m_irrregData_startID
potp_llc_repl: checkpoint 1
m_irrregData_startID
potp_llc_repl: checkpoint 1
m_irrregData_startID
potp_llc_repl: checkpoint 1
m_irrregData_startID
potp_llc_repl: checkpoint 1
m_irrregData_startID
potp_llc_repl: checkpoint 1
m_irrregData_startID
potp_llc_repl: checkpoint 1
m_irrregData_startID
potp_llc_repl: checkpoint 1
m_irrregData_startID
potp_llc_repl: checkpoint 1
m_irrregData_startID
potp_llc_repl: checkpoint 1
m_irrregData_startID
potp_llc_repl: checkpoint 1
m_irrregData_startID
potp_llc_repl: checkpoint 1
m_irrregData_startID
potp_llc_repl: checkpoint 1
m_irrregData_startID
potp_llc_repl: checkpoint 1
m_irrregData_startID
potp_llc_repl: checkpoint 1
m_irrregData_startID
potp_llc_repl: checkpoint 1
m_irrregData_startID
potp_llc_repl: checkpoint 1
m_irrregData_startID
potp_llc_repl: checkpoint 1
m_irrregData_startID
potp_llc_repl: checkpoint 1
m_irrregData_startID
potp_llc_repl: checkpoint 1
m_irrregData_startID
potp_llc_repl: checkpoint 1
m_irrregData_startID
potp_llc_repl: checkpoint 1
m_irrregData_startID
potp_llc_repl: checkpoint 1
m_irrregData_startID
potp_llc_repl: checkpoint 1
m_irrregData_startID
potp_llc_repl: checkpoint 1
m_irrregData_startID
potp_llc_repl: checkpoint 1
m_irrregData_startID
potp_llc_repl: checkpoint 1
m_irrregData_startID
potp_llc_repl: checkpoint 1
m_irrregData_startID
potp_llc_repl: checkpoint 1
m_irrregData_startID
potp_llc_repl: checkpoint 1
m_irrregData_startID
potp_llc_repl: checkpoint 1
m_irrregData_startID
potp_llc_repl: checkpoint 1
m_irrregData_startID
potp_llc_repl: checkpoint 1
m_irrregData_startID
potp_llc_repl: checkpoint 1
m_irrregData_startID
potp_llc_repl: checkpoint 1
m_irrregData_startID
potp_llc_repl: checkpoint 1
m_irrregData_startID
potp_llc_repl: checkpoint 1
m_irrregData_startID
potp_llc_repl: checkpoint 1
m_irrregData_startID
potp_llc_repl: checkpoint 1
m_irrregData_startID
potp_llc_repl: checkpoint 1
m_irrregData_startID
potp_llc_repl: checkpoint 1
m_irrregData_startID
potp_llc_repl: checkpoint 1
m_irrregData_startID
potp_llc_repl: checkpoint 1
m_irrregData_startID
potp_llc_repl: checkpoint 1
m_irrregData_startID
potp_llc_repl: checkpoint 1
m_irrregData_startID
potp_llc_repl: checkpoint 1
m_irrregData_startID
potp_llc_repl: checkpoint 1
m_irrregData_startID
potp_llc_repl: checkpoint 1
m_irrregData_startID
potp_llc_repl: checkpoint 1
m_irrregData_startID
potp_llc_repl: checkpoint 1
m_irrregData_startID
potp_llc_repl: checkpoint 1
m_irrregData_startID
potp_llc_repl: checkpoint 1
m_irrregData_startID
potp_llc_repl: checkpoint 1
m_irrregData_startID
potp_llc_repl: checkpoint 1
m_irrregData_startID
potp_llc_repl: checkpoint 1
m_irrregData_startID
potp_llc_repl: checkpoint 1
m_irrregData_startID
potp_llc_repl: checkpoint 1
m_irrregData_startID
potp_llc_repl: checkpoint 1
m_irrregData_startID
potp_llc_repl: checkpoint 1
m_irrregData_startID
potp_llc_repl: checkpoint 1
m_irrregData_startID
potp_llc_repl: checkpoint 1
m_irrregData_startID
potp_llc_repl: checkpoint 1
m_irrregData_startID
potp_llc_repl: checkpoint 1
m_irrregData_startID
potp_llc_repl: checkpoint 1
m_irrregData_startID
potp_llc_repl: checkpoint 1
m_irrregData_startID
potp_llc_repl: checkpoint 1
m_irrregData_startID
potp_llc_repl: checkpoint 1
m_irrregData_startID
potp_llc_repl: checkpoint 1
m_irrregData_startID
potp_llc_repl: checkpoint 1
m_irrregData_startID
potp_llc_repl: checkpoint 1
m_irrregData_startID
potp_llc_repl: checkpoint 1
m_irrregData_startID
potp_llc_repl: checkpoint 1
m_irrregData_startID
potp_llc_repl: checkpoint 1
m_irrregData_startID
potp_llc_repl: checkpoint 1
m_irrregData_startID
potp_llc_repl: checkpoint 1
m_irrregData_startID
potp_llc_repl: checkpoint 1
m_irrregData_startID
potp_llc_repl: checkpoint 1
m_irrregData_startID
potp_llc_repl: checkpoint 1
m_irrregData_startID
potp_llc_repl: checkpoint 1
m_irrregData_startID
potp_llc_repl: checkpoint 1
m_irrregData_startID
potp_llc_repl: checkpoint 1
m_irrregData_startID
potp_llc_repl: checkpoint 1
m_irrregData_startID
potp_llc_repl: checkpoint 1
m_irrregData_startID
potp_llc_repl: checkpoint 1
m_irrregData_startID
potp_llc_repl: checkpoint 1
m_irrregData_startID
potp_llc_repl: checkpoint 1
m_irrregData_startID
potp_llc_repl: checkpoint 1
m_irrregData_startID
potp_llc_repl: checkpoint 1
m_irrregData_startID
potp_llc_repl: checkpoint 1
m_irrregData_startID
potp_llc_repl: checkpoint 1
m_irrregData_startID
potp_llc_repl: checkpoint 1
m_irrregData_startID
potp_llc_repl: checkpoint 1
m_irrregData_startID
potp_llc_repl: checkpoint 1
m_irrregData_startID
potp_llc_repl: checkpoint 1
m_irrregData_startID
potp_llc_repl: checkpoint 1
m_irrregData_startID
potp_llc_repl: checkpoint 1
m_irrregData_startID
potp_llc_repl: checkpoint 1
m_irrregData_startID
potp_llc_repl: checkpoint 1
m_irrregData_startID
potp_llc_repl: checkpoint 1
m_irrregData_startID
potp_llc_repl: checkpoint 1
m_irrregData_startID
potp_llc_repl: checkpoint 1
m_irrregData_startID
potp_llc_repl: checkpoint 1
m_irrregData_startID
potp_llc_repl: checkpoint 1
m_irrregData_startID
potp_llc_repl: checkpoint 1
m_irrregData_startID
potp_llc_repl: checkpoint 1
m_irrregData_startID
potp_llc_repl: checkpoint 1
m_irrregData_startID
potp_llc_repl: checkpoint 1
m_irrregData_startID
potp_llc_repl: checkpoint 1
m_irrregData_startID
potp_llc_repl: checkpoint 1
m_irrregData_startID
potp_llc_repl: checkpoint 1
m_irrregData_startID
potp_llc_repl: checkpoint 1
m_irrregData_startID
potp_llc_repl: checkpoint 1
m_irrregData_startID
potp_llc_repl: checkpoint 1
m_irrregData_startID
potp_llc_repl: checkpoint 1
m_irrregData_startID
potp_llc_repl: checkpoint 1
m_irrregData_startID
potp_llc_repl: checkpoint 1
m_irrregData_startID
potp_llc_repl: checkpoint 1
m_irrregData_startID
potp_llc_repl: checkpoint 1
m_irrregData_startID
potp_llc_repl: checkpoint 1
m_irrregData_startID
potp_llc_repl: checkpoint 1
m_irrregData_startID
potp_llc_repl: checkpoint 1
m_irrregData_startID
potp_llc_repl: checkpoint 1
m_irrregData_startID
potp_llc_repl: checkpoint 1
m_irrregData_startID
potp_llc_repl: checkpoint 1
m_irrregData_startID
potp_llc_repl: checkpoint 1
m_irrregData_startID
potp_llc_repl: checkpoint 1
m_irrregData_startID
potp_llc_repl: checkpoint 1
m_irrregData_startID
potp_llc_repl: checkpoint 1
m_irrregData_startID
potp_llc_repl: checkpoint 1
m_irrregData_startID
potp_llc_repl: checkpoint 1
m_irrregData_startID
potp_llc_repl: checkpoint 1
m_irrregData_startID
potp_llc_repl: checkpoint 1
m_irrregData_startID
potp_llc_repl: checkpoint 1
m_irrregData_startID
potp_llc_repl: checkpoint 1
m_irrregData_startID
potp_llc_repl: checkpoint 1
m_irrregData_startID
potp_llc_repl: checkpoint 1
m_irrregData_startID
potp_llc_repl: checkpoint 1
m_irrregData_startID
potp_llc_repl: checkpoint 1
m_irrregData_startID
potp_llc_repl: checkpoint 1
m_irrregData_startID
potp_llc_repl: checkpoint 1
m_irrregData_startID
potp_llc_repl: checkpoint 1
m_irrregData_startID
potp_llc_repl: checkpoint 1
m_irrregData_startID
potp_llc_repl: checkpoint 1
m_irrregData_startID
potp_llc_repl: checkpoint 1
m_irrregData_startID
potp_llc_repl: checkpoint 1
m_irrregData_startID
potp_llc_repl: checkpoint 1
m_irrregData_startID
potp_llc_repl: checkpoint 1
m_irrregData_startID
potp_llc_repl: checkpoint 1
m_irrregData_startID
potp_llc_repl: checkpoint 1
m_irrregData_startID
potp_llc_repl: checkpoint 1
m_irrregData_startID
potp_llc_repl: checkpoint 1
m_irrregData_startID
potp_llc_repl: checkpoint 1
m_irrregData_startID
potp_llc_repl: checkpoint 1
m_irrregData_startID
potp_llc_repl: checkpoint 1
m_irrregData_startID
potp_llc_repl: checkpoint 1
m_irrregData_startID
potp_llc_repl: checkpoint 1
m_irrregData_startID
potp_llc_repl: checkpoint 1
m_irrregData_startID
potp_llc_repl: checkpoint 1
m_irrregData_startID
potp_llc_repl: checkpoint 1
m_irrregData_startID
potp_llc_repl: checkpoint 1
m_irrregData_startID
potp_llc_repl: checkpoint 1
m_irrregData_startID
potp_llc_repl: checkpoint 1
m_irrregData_startID
potp_llc_repl: checkpoint 1
m_irrregData_startID
potp_llc_repl: checkpoint 1
m_irrregData_startID
potp_llc_repl: checkpoint 1
m_irrregData_startID
potp_llc_repl: checkpoint 1
m_irrregData_startID
potp_llc_repl: checkpoint 1
m_irrregData_startID
potp_llc_repl: checkpoint 1
m_irrregData_startID
potp_llc_repl: checkpoint 1
m_irrregData_startID
potp_llc_repl: checkpoint 1
m_irrregData_startID
potp_llc_repl: checkpoint 1
m_irrregData_startID
potp_llc_repl: checkpoint 1
m_irrregData_startID
potp_llc_repl: checkpoint 1
m_irrregData_startID
potp_llc_repl: checkpoint 1
m_irrregData_startID
potp_llc_repl: checkpoint 1
m_irrregData_startID
potp_llc_repl: checkpoint 1
m_irrregData_startID
potp_llc_repl: checkpoint 1
m_irrregData_startID
potp_llc_repl: checkpoint 1
m_irrregData_startID
potp_llc_repl: checkpoint 1
m_irrregData_startID
potp_llc_repl: checkpoint 1
m_irrregData_startID
potp_llc_repl: checkpoint 1
m_irrregData_startID
potp_llc_repl: checkpoint 1
m_irrregData_startID
potp_llc_repl: checkpoint 1
m_irrregData_startID
potp_llc_repl: checkpoint 1
m_irrregData_startID
potp_llc_repl: checkpoint 1
m_irrregData_startID
potp_llc_repl: checkpoint 1
m_irrregData_startID
potp_llc_repl: checkpoint 1
m_irrregData_startID
potp_llc_repl: checkpoint 1
m_irrregData_startID
potp_llc_repl: checkpoint 1
m_irrregData_startID
potp_llc_repl: checkpoint 1
m_irrregData_startID
potp_llc_repl: checkpoint 1
m_irrregData_startID
potp_llc_repl: checkpoint 1
m_irrregData_startID
potp_llc_repl: checkpoint 1
m_irrregData_startID
potp_llc_repl: checkpoint 1
m_irrregData_startID
potp_llc_repl: checkpoint 1
m_irrregData_startID
potp_llc_repl: checkpoint 1
m_irrregData_startID
potp_llc_repl: checkpoint 1
m_irrregData_startID
potp_llc_repl: checkpoint 1
m_irrregData_startID
potp_llc_repl: checkpoint 1
m_irrregData_startID
potp_llc_repl: checkpoint 1
m_irrregData_startID
potp_llc_repl: checkpoint 1
m_irrregData_startID
potp_llc_repl: checkpoint 1
m_irrregData_startID
potp_llc_repl: checkpoint 1
m_irrregData_startID
potp_llc_repl: checkpoint 1
m_irrregData_startID
potp_llc_repl: checkpoint 1
m_irrregData_startID
potp_llc_repl: checkpoint 1
m_irrregData_startID
potp_llc_repl: checkpoint 1
m_irrregData_startID
potp_llc_repl: checkpoint 1
m_irrregData_startID
potp_llc_repl: checkpoint 1
m_irrregData_startID
potp_llc_repl: checkpoint 1
m_irrregData_startID
potp_llc_repl: checkpoint 1
m_irrregData_startID
potp_llc_repl: checkpoint 1
m_irrregData_startID
potp_llc_repl: checkpoint 1
m_irrregData_startID
potp_llc_repl: checkpoint 1
m_irrregData_startID
potp_llc_repl: checkpoint 1
m_irrregData_startID
potp_llc_repl: checkpoint 1
m_irrregData_startID
potp_llc_repl: checkpoint 1
m_irrregData_startID
potp_llc_repl: checkpoint 1
m_irrregData_startID
potp_llc_repl: checkpoint 1
m_irrregData_startID
potp_llc_repl: checkpoint 1
m_irrregData_startID
potp_llc_repl: checkpoint 1
m_irrregData_startID
potp_llc_repl: checkpoint 1
m_irrregData_startID
potp_llc_repl: checkpoint 1
m_irrregData_startID
potp_llc_repl: checkpoint 1
m_irrregData_startID
potp_llc_repl: checkpoint 1
m_irrregData_startID
potp_llc_repl: checkpoint 1
m_irrregData_startID
potp_llc_repl: checkpoint 1
m_irrregData_startID
potp_llc_repl: checkpoint 1
m_irrregData_startID
potp_llc_repl: checkpoint 1
m_irrregData_startID
potp_llc_repl: checkpoint 1
m_irrregData_startID
potp_llc_repl: checkpoint 1
m_irrregData_startID
potp_llc_repl: checkpoint 1
m_irrregData_startID
potp_llc_repl: checkpoint 1
m_irrregData_startID
potp_llc_repl: checkpoint 1
m_irrregData_startID
potp_llc_repl: checkpoint 1
m_irrregData_startID
potp_llc_repl: checkpoint 1
m_irrregData_startID
potp_llc_repl: checkpoint 1
m_irrregData_startID
potp_llc_repl: checkpoint 1
m_irrregData_startID
potp_llc_repl: checkpoint 1
m_irrregData_startID
potp_llc_repl: checkpoint 1
m_irrregData_startID
potp_llc_repl: checkpoint 1
m_irrregData_startID
potp_llc_repl: checkpoint 1
m_irrregData_startID
potp_llc_repl: checkpoint 1
m_irrregData_startID
potp_llc_repl: checkpoint 1
m_irrregData_startID
potp_llc_repl: checkpoint 1
m_irrregData_startID
potp_llc_repl: checkpoint 1
m_irrregData_startID
potp_llc_repl: checkpoint 1
m_irrregData_startID
potp_llc_repl: checkpoint 1
m_irrregData_startID
potp_llc_repl: checkpoint 1
m_irrregData_startID
potp_llc_repl: checkpoint 1
m_irrregData_startID
potp_llc_repl: checkpoint 1
m_irrregData_startID
potp_llc_repl: checkpoint 1
m_irrregData_startID
potp_llc_repl: checkpoint 1
m_irrregData_startID
potp_llc_repl: checkpoint 1
m_irrregData_startID
potp_llc_repl: checkpoint 1
m_irrregData_startID
potp_llc_repl: checkpoint 1
m_irrregData_startID
potp_llc_repl: checkpoint 1
m_irrregData_startID
potp_llc_repl: checkpoint 1
m_irrregData_startID
potp_llc_repl: checkpoint 1
m_irrregData_startID
potp_llc_repl: checkpoint 1
m_irrregData_startID
potp_llc_repl: checkpoint 1
m_irrregData_startID
potp_llc_repl: checkpoint 1
m_irrregData_startID
potp_llc_repl: checkpoint 1
m_irrregData_startID
potp_llc_repl: checkpoint 1
m_irrregData_startID
potp_llc_repl: checkpoint 1
m_irrregData_startID
potp_llc_repl: checkpoint 1
m_irrregData_startID
potp_llc_repl: checkpoint 1
m_irrregData_startID
potp_llc_repl: checkpoint 1
m_irrregData_startID
potp_llc_repl: checkpoint 1
m_irrregData_startID
potp_llc_repl: checkpoint 1
m_irrregData_startID
potp_llc_repl: checkpoint 1
m_irrregData_startID
potp_llc_repl: checkpoint 1
m_irrregData_startID
potp_llc_repl: checkpoint 1
m_irrregData_startID
potp_llc_repl: checkpoint 1
m_irrregData_startID
potp_llc_repl: checkpoint 1
m_irrregData_startID
potp_llc_repl: checkpoint 1
m_irrregData_startID
potp_llc_repl: checkpoint 1
m_irrregData_startID
potp_llc_repl: checkpoint 1
m_irrregData_startID
potp_llc_repl: checkpoint 1
m_irrregData_startID
potp_llc_repl: checkpoint 1
m_irrregData_startID
potp_llc_repl: checkpoint 1
m_irrregData_startID
potp_llc_repl: checkpoint 1
m_irrregData_startID
potp_llc_repl: checkpoint 1
m_irrregData_startID
potp_llc_repl: checkpoint 1
m_irrregData_startID
potp_llc_repl: checkpoint 1
m_irrregData_startID
potp_llc_repl: checkpoint 1
m_irrregData_startID
potp_llc_repl: checkpoint 1
m_irrregData_startID
potp_llc_repl: checkpoint 1
m_irrregData_startID
potp_llc_repl: checkpoint 1
m_irrregData_startID
potp_llc_repl: checkpoint 1
m_irrregData_startID
potp_llc_repl: checkpoint 1
m_irrregData_startID
potp_llc_repl: checkpoint 1
m_irrregData_startID
potp_llc_repl: checkpoint 1
m_irrregData_startID
potp_llc_repl: checkpoint 1
m_irrregData_startID
potp_llc_repl: checkpoint 1
m_irrregData_startID
potp_llc_repl: checkpoint 1
m_irrregData_startID
potp_llc_repl: checkpoint 1
m_irrregData_startID
potp_llc_repl: checkpoint 1
m_irrregData_startID
potp_llc_repl: checkpoint 1
m_irrregData_startID
potp_llc_repl: checkpoint 1
m_irrregData_startID
potp_llc_repl: checkpoint 1
m_irrregData_startID
potp_llc_repl: checkpoint 1
m_irrregData_startID
potp_llc_repl: checkpoint 1
m_irrregData_startID
potp_llc_repl: checkpoint 1
m_irrregData_startID
potp_llc_repl: checkpoint 1
m_irrregData_startID
potp_llc_repl: checkpoint 1
m_irrregData_startID
potp_llc_repl: checkpoint 1
m_irrregData_startID
potp_llc_repl: checkpoint 1
m_irrregData_startID
potp_llc_repl: checkpoint 1
m_irrregData_startID
potp_llc_repl: checkpoint 1
m_irrregData_startID
potp_llc_repl: checkpoint 1
m_irrregData_startID
potp_llc_repl: checkpoint 1
m_irrregData_startID
potp_llc_repl: checkpoint 1
m_irrregData_startID
potp_llc_repl: checkpoint 1
m_irrregData_startID
potp_llc_repl: checkpoint 1
m_irrregData_startID
potp_llc_repl: checkpoint 1
m_irrregData_startID
potp_llc_repl: checkpoint 1
m_irrregData_startID
potp_llc_repl: checkpoint 1
m_irrregData_startID
potp_llc_repl: checkpoint 1
m_irrregData_startID
potp_llc_repl: checkpoint 1
m_irrregData_startID
potp_llc_repl: checkpoint 1
m_irrregData_startID
potp_llc_repl: checkpoint 1
m_irrregData_startID
potp_llc_repl: checkpoint 1
m_irrregData_startID
potp_llc_repl: checkpoint 1
m_irrregData_startID
potp_llc_repl: checkpoint 1
m_irrregData_startID
potp_llc_repl: checkpoint 1
m_irrregData_startID
potp_llc_repl: checkpoint 1
m_irrregData_startID
potp_llc_repl: checkpoint 1
m_irrregData_startID
potp_llc_repl: checkpoint 1
m_irrregData_startID
potp_llc_repl: checkpoint 1
m_irrregData_startID
potp_llc_repl: checkpoint 1
m_irrregData_startID
potp_llc_repl: checkpoint 1
m_irrregData_startID
potp_llc_repl: checkpoint 1
m_irrregData_startID
potp_llc_repl: checkpoint 1
m_irrregData_startID
potp_llc_repl: checkpoint 1
m_irrregData_startID
potp_llc_repl: checkpoint 1
m_irrregData_startID
potp_llc_repl: checkpoint 1
m_irrregData_startID
potp_llc_repl: checkpoint 1
m_irrregData_startID
potp_llc_repl: checkpoint 1
m_irrregData_startID
potp_llc_repl: checkpoint 1
m_irrregData_startID
potp_llc_repl: checkpoint 1
m_irrregData_startID
potp_llc_repl: checkpoint 1
m_irrregData_startID
potp_llc_repl: checkpoint 1
m_irrregData_startID
potp_llc_repl: checkpoint 1
m_irrregData_startID
potp_llc_repl: checkpoint 1
m_irrregData_startID
potp_llc_repl: checkpoint 1
m_irrregData_startID
potp_llc_repl: checkpoint 1
m_irrregData_startID
potp_llc_repl: checkpoint 1
m_irrregData_startID
potp_llc_repl: checkpoint 1
m_irrregData_startID
potp_llc_repl: checkpoint 1
m_irrregData_startID
potp_llc_repl: checkpoint 1
m_irrregData_startID
potp_llc_repl: checkpoint 1
m_irrregData_startID
potp_llc_repl: checkpoint 1
m_irrregData_startID
potp_llc_repl: checkpoint 1
m_irrregData_startID
potp_llc_repl: checkpoint 1
m_irrregData_startID
potp_llc_repl: checkpoint 1
m_irrregData_startID
potp_llc_repl: checkpoint 1
m_irrregData_startID
potp_llc_repl: checkpoint 1
m_irrregData_startID
potp_llc_repl: checkpoint 1
m_irrregData_startID
potp_llc_repl: checkpoint 1
m_irrregData_startID
potp_llc_repl: checkpoint 1
m_irrregData_startID
potp_llc_repl: checkpoint 1
m_irrregData_startID
potp_llc_repl: checkpoint 1
m_irrregData_startID
potp_llc_repl: checkpoint 1
m_irrregData_startID
potp_llc_repl: checkpoint 1
m_irrregData_startID
potp_llc_repl: checkpoint 1
m_irrregData_startID
potp_llc_repl: checkpoint 1
m_irrregData_startID
potp_llc_repl: checkpoint 1
m_irrregData_startID
potp_llc_repl: checkpoint 1
m_irrregData_startID
potp_llc_repl: checkpoint 1
m_irrregData_startID
potp_llc_repl: checkpoint 1
m_irrregData_startID
potp_llc_repl: checkpoint 1
m_irrregData_startID
potp_llc_repl: checkpoint 1
m_irrregData_startID
potp_llc_repl: checkpoint 1
m_irrregData_startID
potp_llc_repl: checkpoint 1
m_irrregData_startID
potp_llc_repl: checkpoint 1
m_irrregData_startID
potp_llc_repl: checkpoint 1
m_irrregData_startID
potp_llc_repl: checkpoint 1
m_irrregData_startID
potp_llc_repl: checkpoint 1
m_irrregData_startID
potp_llc_repl: checkpoint 1
m_irrregData_startID
potp_llc_repl: checkpoint 1
m_irrregData_startID
potp_llc_repl: checkpoint 1
m_irrregData_startID
potp_llc_repl: checkpoint 1
m_irrregData_startID
potp_llc_repl: checkpoint 1
m_irrregData_startID
potp_llc_repl: checkpoint 1
m_irrregData_startID
potp_llc_repl: checkpoint 1
m_irrregData_startID
potp_llc_repl: checkpoint 1
m_irrregData_startID
potp_llc_repl: checkpoint 1
m_irrregData_startID
potp_llc_repl: checkpoint 1
m_irrregData_startID
potp_llc_repl: checkpoint 1
m_irrregData_startID
potp_llc_repl: checkpoint 1
m_irrregData_startID
potp_llc_repl: checkpoint 1
m_irrregData_startID
potp_llc_repl: checkpoint 1
m_irrregData_startID
potp_llc_repl: checkpoint 1
m_irrregData_startID
potp_llc_repl: checkpoint 1
m_irrregData_startID
potp_llc_repl: checkpoint 1
m_irrregData_startID
potp_llc_repl: checkpoint 1
m_irrregData_startID
potp_llc_repl: checkpoint 1
m_irrregData_startID
potp_llc_repl: checkpoint 1
m_irrregData_startID
potp_llc_repl: checkpoint 1
m_irrregData_startID
potp_llc_repl: checkpoint 1
m_irrregData_startID
potp_llc_repl: checkpoint 1
m_irrregData_startID
potp_llc_repl: checkpoint 1
m_irrregData_startID
potp_llc_repl: checkpoint 1
m_irrregData_startID
potp_llc_repl: checkpoint 1
m_irrregData_startID
potp_llc_repl: checkpoint 1
m_irrregData_startID
potp_llc_repl: checkpoint 1
m_irrregData_startID
potp_llc_repl: checkpoint 1
m_irrregData_startID
potp_llc_repl: checkpoint 1
m_irrregData_startID
potp_llc_repl: checkpoint 1
m_irrregData_startID
potp_llc_repl: checkpoint 1
m_irrregData_startID
potp_llc_repl: checkpoint 1
m_irrregData_startID
potp_llc_repl: checkpoint 1
m_irrregData_startID
potp_llc_repl: checkpoint 1
m_irrregData_startID
potp_llc_repl: checkpoint 1
m_irrregData_startID
potp_llc_repl: checkpoint 1
m_irrregData_startID
potp_llc_repl: checkpoint 1
m_irrregData_startID
potp_llc_repl: checkpoint 1
m_irrregData_startID
potp_llc_repl: checkpoint 1
m_irrregData_startID
potp_llc_repl: checkpoint 1
m_irrregData_startID
potp_llc_repl: checkpoint 1
m_irrregData_startID
potp_llc_repl: checkpoint 1
m_irrregData_startID
potp_llc_repl: checkpoint 1
m_irrregData_startID
potp_llc_repl: checkpoint 1
m_irrregData_startID
potp_llc_repl: checkpoint 1
m_irrregData_startID
potp_llc_repl: checkpoint 1
m_irrregData_startID
potp_llc_repl: checkpoint 1
m_irrregData_startID
potp_llc_repl: checkpoint 1
m_irrregData_startID
potp_llc_repl: checkpoint 1
m_irrregData_startID
potp_llc_repl: checkpoint 1
m_irrregData_startID
potp_llc_repl: checkpoint 1
m_irrregData_startID
potp_llc_repl: checkpoint 1
m_irrregData_startID
potp_llc_repl: checkpoint 1
m_irrregData_startID
potp_llc_repl: checkpoint 1
m_irrregData_startID
potp_llc_repl: checkpoint 1
m_irrregData_startID
potp_llc_repl: checkpoint 1
m_irrregData_startID
potp_llc_repl: checkpoint 1
m_irrregData_startID
potp_llc_repl: checkpoint 1
m_irrregData_startID
potp_llc_repl: checkpoint 1
m_irrregData_startID
potp_llc_repl: checkpoint 1
m_irrregData_startID
potp_llc_repl: checkpoint 1
m_irrregData_startID
potp_llc_repl: checkpoint 1
m_irrregData_startID
potp_llc_repl: checkpoint 1
m_irrregData_startID
potp_llc_repl: checkpoint 1
m_irrregData_startID
potp_llc_repl: checkpoint 1
m_irrregData_startID
potp_llc_repl: checkpoint 1
m_irrregData_startID
potp_llc_repl: checkpoint 1
m_irrregData_startID
potp_llc_repl: checkpoint 1
m_irrregData_startID
potp_llc_repl: checkpoint 1
m_irrregData_startID
potp_llc_repl: checkpoint 1
m_irrregData_startID
potp_llc_repl: checkpoint 1
m_irrregData_startID
potp_llc_repl: checkpoint 1
m_irrregData_startID
potp_llc_repl: checkpoint 1
m_irrregData_startID
potp_llc_repl: checkpoint 1
m_irrregData_startID
potp_llc_repl: checkpoint 1
m_irrregData_startID
potp_llc_repl: checkpoint 1
m_irrregData_startID
potp_llc_repl: checkpoint 1
m_irrregData_startID
potp_llc_repl: checkpoint 1
m_irrregData_startID
potp_llc_repl: checkpoint 1
m_irrregData_startID
potp_llc_repl: checkpoint 1
m_irrregData_startID
potp_llc_repl: checkpoint 1
m_irrregData_startID
potp_llc_repl: checkpoint 1
m_irrregData_startID
potp_llc_repl: checkpoint 1
m_irrregData_startID
potp_llc_repl: checkpoint 1
m_irrregData_startID
potp_llc_repl: checkpoint 1
m_irrregData_startID
potp_llc_repl: checkpoint 1
m_irrregData_startID
potp_llc_repl: checkpoint 1
m_irrregData_startID
potp_llc_repl: checkpoint 1
m_irrregData_startID
potp_llc_repl: checkpoint 1
m_irrregData_startID
potp_llc_repl: checkpoint 1
m_irrregData_startID
potp_llc_repl: checkpoint 1
m_irrregData_startID
potp_llc_repl: checkpoint 1
m_irrregData_startID
potp_llc_repl: checkpoint 1
m_irrregData_startID
potp_llc_repl: checkpoint 1
m_irrregData_startID
potp_llc_repl: checkpoint 1
m_irrregData_startID
potp_llc_repl: checkpoint 1
m_irrregData_startID
potp_llc_repl: checkpoint 1
m_irrregData_startID
potp_llc_repl: checkpoint 1
m_irrregData_startID
potp_llc_repl: checkpoint 1
m_irrregData_startID
potp_llc_repl: checkpoint 1
m_irrregData_startID
potp_llc_repl: checkpoint 1
m_irrregData_startID
potp_llc_repl: checkpoint 1
m_irrregData_startID
potp_llc_repl: checkpoint 1
m_irrregData_startID
potp_llc_repl: checkpoint 1
m_irrregData_startID
potp_llc_repl: checkpoint 1
m_irrregData_startID
potp_llc_repl: checkpoint 1
m_irrregData_startID
potp_llc_repl: checkpoint 1
m_irrregData_startID
potp_llc_repl: checkpoint 1
m_irrregData_startID
potp_llc_repl: checkpoint 1
m_irrregData_startID
potp_llc_repl: checkpoint 1
m_irrregData_startID
potp_llc_repl: checkpoint 1
m_irrregData_startID
potp_llc_repl: checkpoint 1
m_irrregData_startID
potp_llc_repl: checkpoint 1
m_irrregData_startID
potp_llc_repl: checkpoint 1
m_irrregData_startID
potp_llc_repl: checkpoint 1
m_irrregData_startID
potp_llc_repl: checkpoint 1
m_irrregData_startID
potp_llc_repl: checkpoint 1
m_irrregData_startID
potp_llc_repl: checkpoint 1
m_irrregData_startID
potp_llc_repl: checkpoint 1
m_irrregData_startID
potp_llc_repl: checkpoint 1
m_irrregData_startID
potp_llc_repl: checkpoint 1
m_irrregData_startID
potp_llc_repl: checkpoint 1
m_irrregData_startID
potp_llc_repl: checkpoint 1
m_irrregData_startID
potp_llc_repl: checkpoint 1
m_irrregData_startID
potp_llc_repl: checkpoint 1
m_irrregData_startID
potp_llc_repl: checkpoint 1
m_irrregData_startID
potp_llc_repl: checkpoint 1
m_irrregData_startID
potp_llc_repl: checkpoint 1
m_irrregData_startID
potp_llc_repl: checkpoint 1
m_irrregData_startID
potp_llc_repl: checkpoint 1
m_irrregData_startID
potp_llc_repl: checkpoint 1
m_irrregData_startID
potp_llc_repl: checkpoint 1
m_irrregData_startID
potp_llc_repl: checkpoint 1
m_irrregData_startID
potp_llc_repl: checkpoint 1
m_irrregData_startID
potp_llc_repl: checkpoint 1
m_irrregData_startID
potp_llc_repl: checkpoint 1
m_irrregData_startID
potp_llc_repl: checkpoint 1
m_irrregData_startID
potp_llc_repl: checkpoint 1
m_irrregData_startID
potp_llc_repl: checkpoint 1
m_irrregData_startID
potp_llc_repl: checkpoint 1
m_irrregData_startID
potp_llc_repl: checkpoint 1
m_irrregData_startID
potp_llc_repl: checkpoint 1
m_irrregData_startID
potp_llc_repl: checkpoint 1
m_irrregData_startID
potp_llc_repl: checkpoint 1
m_irrregData_startID
potp_llc_repl: checkpoint 1
m_irrregData_startID
potp_llc_repl: checkpoint 1
m_irrregData_startID
potp_llc_repl: checkpoint 1
m_irrregData_startID
potp_llc_repl: checkpoint 1
m_irrregData_startID
potp_llc_repl: checkpoint 1
m_irrregData_startID
potp_llc_repl: checkpoint 1
m_irrregData_startID
potp_llc_repl: checkpoint 1
m_irrregData_startID
potp_llc_repl: checkpoint 1
m_irrregData_startID
potp_llc_repl: checkpoint 1
m_irrregData_startID
potp_llc_repl: checkpoint 1
m_irrregData_startID
potp_llc_repl: checkpoint 1
m_irrregData_startID
potp_llc_repl: checkpoint 1
m_irrregData_startID
potp_llc_repl: checkpoint 1
m_irrregData_startID
potp_llc_repl: checkpoint 1
m_irrregData_startID
potp_llc_repl: checkpoint 1
m_irrregData_startID
potp_llc_repl: checkpoint 1
m_irrregData_startID
potp_llc_repl: checkpoint 1
m_irrregData_startID
potp_llc_repl: checkpoint 1
m_irrregData_startID
potp_llc_repl: checkpoint 1
m_irrregData_startID
potp_llc_repl: checkpoint 1
m_irrregData_startID
potp_llc_repl: checkpoint 1
m_irrregData_startID
potp_llc_repl: checkpoint 1
m_irrregData_startID
potp_llc_repl: checkpoint 1
m_irrregData_startID
potp_llc_repl: checkpoint 1
m_irrregData_startID
potp_llc_repl: checkpoint 1
m_irrregData_startID
potp_llc_repl: checkpoint 1
m_irrregData_startID
potp_llc_repl: checkpoint 1
m_irrregData_startID
potp_llc_repl: checkpoint 1
m_irrregData_startID
potp_llc_repl: checkpoint 1
m_irrregData_startID
potp_llc_repl: checkpoint 1
m_irrregData_startID
potp_llc_repl: checkpoint 1
m_irrregData_startID
potp_llc_repl: checkpoint 1
m_irrregData_startID
potp_llc_repl: checkpoint 1
m_irrregData_startID
potp_llc_repl: checkpoint 1
m_irrregData_startID
potp_llc_repl: checkpoint 1
m_irrregData_startID
potp_llc_repl: checkpoint 1
m_irrregData_startID
potp_llc_repl: checkpoint 1
m_irrregData_startID
potp_llc_repl: checkpoint 1
m_irrregData_startID
potp_llc_repl: checkpoint 1
m_irrregData_startID
potp_llc_repl: checkpoint 1
m_irrregData_startID
potp_llc_repl: checkpoint 1
m_irrregData_startID
potp_llc_repl: checkpoint 1
m_irrregData_startID
potp_llc_repl: checkpoint 1
m_irrregData_startID
potp_llc_repl: checkpoint 1
m_irrregData_startID
potp_llc_repl: checkpoint 1
m_irrregData_startID
potp_llc_repl: checkpoint 1
m_irrregData_startID
potp_llc_repl: checkpoint 1
m_irrregData_startID
potp_llc_repl: checkpoint 1
m_irrregData_startID
potp_llc_repl: checkpoint 1
m_irrregData_startID
potp_llc_repl: checkpoint 1
m_irrregData_startID
potp_llc_repl: checkpoint 1
m_irrregData_startID
potp_llc_repl: checkpoint 1
m_irrregData_startID
potp_llc_repl: checkpoint 1
m_irrregData_startID
potp_llc_repl: checkpoint 1
m_irrregData_startID
potp_llc_repl: checkpoint 1
m_irrregData_startID
potp_llc_repl: checkpoint 1
m_irrregData_startID
potp_llc_repl: checkpoint 1
m_irrregData_startID
potp_llc_repl: checkpoint 1
m_irrregData_startID
potp_llc_repl: checkpoint 1
m_irrregData_startID
potp_llc_repl: checkpoint 1
m_irrregData_startID
potp_llc_repl: checkpoint 1
m_irrregData_startID
potp_llc_repl: checkpoint 1
m_irrregData_startID
potp_llc_repl: checkpoint 1
m_irrregData_startID
potp_llc_repl: checkpoint 1
m_irrregData_startID
potp_llc_repl: checkpoint 1
m_irrregData_startID
potp_llc_repl: checkpoint 1
m_irrregData_startID
potp_llc_repl: checkpoint 1
m_irrregData_startID
potp_llc_repl: checkpoint 1
m_irrregData_startID
potp_llc_repl: checkpoint 1
m_irrregData_startID
potp_llc_repl: checkpoint 1
m_irrregData_startID
potp_llc_repl: checkpoint 1
m_irrregData_startID
potp_llc_repl: checkpoint 1
m_irrregData_startID
potp_llc_repl: checkpoint 1
m_irrregData_startID
potp_llc_repl: checkpoint 1
m_irrregData_startID
potp_llc_repl: checkpoint 1
m_irrregData_startID
potp_llc_repl: checkpoint 1
m_irrregData_startID
potp_llc_repl: checkpoint 1
m_irrregData_startID
potp_llc_repl: checkpoint 1
m_irrregData_startID
potp_llc_repl: checkpoint 1
m_irrregData_startID
potp_llc_repl: checkpoint 1
m_irrregData_startID
potp_llc_repl: checkpoint 1
m_irrregData_startID
potp_llc_repl: checkpoint 1
m_irrregData_startID
potp_llc_repl: checkpoint 1
m_irrregData_startID
potp_llc_repl: checkpoint 1
m_irrregData_startID
potp_llc_repl: checkpoint 1
m_irrregData_startID
potp_llc_repl: checkpoint 1
m_irrregData_startID
potp_llc_repl: checkpoint 1
m_irrregData_startID
potp_llc_repl: checkpoint 1
m_irrregData_startID
potp_llc_repl: checkpoint 1
m_irrregData_startID
potp_llc_repl: checkpoint 1
m_irrregData_startID
potp_llc_repl: checkpoint 1
m_irrregData_startID
potp_llc_repl: checkpoint 1
m_irrregData_startID
potp_llc_repl: checkpoint 1
m_irrregData_startID
potp_llc_repl: checkpoint 1
m_irrregData_startID
potp_llc_repl: checkpoint 1
m_irrregData_startID
potp_llc_repl: checkpoint 1
m_irrregData_startID
potp_llc_repl: checkpoint 1
m_irrregData_startID
potp_llc_repl: checkpoint 1
m_irrregData_startID
potp_llc_repl: checkpoint 1
m_irrregData_startID
potp_llc_repl: checkpoint 1
m_irrregData_startID
potp_llc_repl: checkpoint 1
m_irrregData_startID
potp_llc_repl: checkpoint 1
m_irrregData_startID
potp_llc_repl: checkpoint 1
m_irrregData_startID
potp_llc_repl: checkpoint 1
m_irrregData_startID
potp_llc_repl: checkpoint 1
m_irrregData_startID
potp_llc_repl: checkpoint 1
m_irrregData_startID
potp_llc_repl: checkpoint 1
m_irrregData_startID
potp_llc_repl: checkpoint 1
m_irrregData_startID
potp_llc_repl: checkpoint 1
m_irrregData_startID
potp_llc_repl: checkpoint 1
m_irrregData_startID
potp_llc_repl: checkpoint 1
m_irrregData_startID
potp_llc_repl: checkpoint 1
m_irrregData_startID
potp_llc_repl: checkpoint 1
m_irrregData_startID
potp_llc_repl: checkpoint 1
m_irrregData_startID
potp_llc_repl: checkpoint 1
m_irrregData_startID
potp_llc_repl: checkpoint 1
m_irrregData_startID
potp_llc_repl: checkpoint 1
m_irrregData_startID
potp_llc_repl: checkpoint 1
m_irrregData_startID
potp_llc_repl: checkpoint 1
m_irrregData_startID
potp_llc_repl: checkpoint 1
m_irrregData_startID
potp_llc_repl: checkpoint 1
m_irrregData_startID
potp_llc_repl: checkpoint 1
m_irrregData_startID
potp_llc_repl: checkpoint 1
m_irrregData_startID
potp_llc_repl: checkpoint 1
m_irrregData_startID
potp_llc_repl: checkpoint 1
m_irrregData_startID
potp_llc_repl: checkpoint 1
m_irrregData_startID
potp_llc_repl: checkpoint 1
m_irrregData_startID
potp_llc_repl: checkpoint 1
m_irrregData_startID
potp_llc_repl: checkpoint 1
m_irrregData_startID
potp_llc_repl: checkpoint 1
m_irrregData_startID
potp_llc_repl: checkpoint 1
m_irrregData_startID
potp_llc_repl: checkpoint 1
m_irrregData_startID
potp_llc_repl: checkpoint 1
m_irrregData_startID
potp_llc_repl: checkpoint 1
m_irrregData_startID
potp_llc_repl: checkpoint 1
m_irrregData_startID
potp_llc_repl: checkpoint 1
m_irrregData_startID
potp_llc_repl: checkpoint 1
m_irrregData_startID
potp_llc_repl: checkpoint 1
m_irrregData_startID
potp_llc_repl: checkpoint 1
m_irrregData_startID
potp_llc_repl: checkpoint 1
m_irrregData_startID
potp_llc_repl: checkpoint 1
m_irrregData_startID
potp_llc_repl: checkpoint 1
m_irrregData_startID
potp_llc_repl: checkpoint 1
m_irrregData_startID
potp_llc_repl: checkpoint 1
m_irrregData_startID
potp_llc_repl: checkpoint 1
m_irrregData_startID
potp_llc_repl: checkpoint 1
m_irrregData_startID
potp_llc_repl: checkpoint 1
m_irrregData_startID
potp_llc_repl: checkpoint 1
m_irrregData_startID
potp_llc_repl: checkpoint 1
m_irrregData_startID
potp_llc_repl: checkpoint 1
m_irrregData_startID
potp_llc_repl: checkpoint 1
m_irrregData_startID
potp_llc_repl: checkpoint 1
m_irrregData_startID
potp_llc_repl: checkpoint 1
m_irrregData_startID
potp_llc_repl: checkpoint 1
m_irrregData_startID
potp_llc_repl: checkpoint 1
m_irrregData_startID
potp_llc_repl: checkpoint 1
m_irrregData_startID
potp_llc_repl: checkpoint 1
m_irrregData_startID
potp_llc_repl: checkpoint 1
m_irrregData_startID
potp_llc_repl: checkpoint 1
m_irrregData_startID
potp_llc_repl: checkpoint 1
m_irrregData_startID
potp_llc_repl: checkpoint 1
m_irrregData_startID
potp_llc_repl: checkpoint 1
m_irrregData_startID
potp_llc_repl: checkpoint 1
m_irrregData_startID
potp_llc_repl: checkpoint 1
m_irrregData_startID
potp_llc_repl: checkpoint 1
m_irrregData_startID
potp_llc_repl: checkpoint 1
m_irrregData_startID
potp_llc_repl: checkpoint 1
m_irrregData_startID
potp_llc_repl: checkpoint 1
m_irrregData_startID
potp_llc_repl: checkpoint 1
m_irrregData_startID
potp_llc_repl: checkpoint 1
m_irrregData_startID
potp_llc_repl: checkpoint 1
m_irrregData_startID
potp_llc_repl: checkpoint 1
m_irrregData_startID
potp_llc_repl: checkpoint 1
m_irrregData_startID
potp_llc_repl: checkpoint 1
m_irrregData_startID
potp_llc_repl: checkpoint 1
m_irrregData_startID
potp_llc_repl: checkpoint 1
m_irrregData_startID
potp_llc_repl: checkpoint 1
m_irrregData_startID
potp_llc_repl: checkpoint 1
m_irrregData_startID
potp_llc_repl: checkpoint 1
m_irrregData_startID
potp_llc_repl: checkpoint 1
m_irrregData_startID
potp_llc_repl: checkpoint 1
m_irrregData_startID
potp_llc_repl: checkpoint 1
m_irrregData_startID
potp_llc_repl: checkpoint 1
m_irrregData_startID
potp_llc_repl: checkpoint 1
m_irrregData_startID
potp_llc_repl: checkpoint 1
m_irrregData_startID
potp_llc_repl: checkpoint 1
m_irrregData_startID
potp_llc_repl: checkpoint 1
m_irrregData_startID
potp_llc_repl: checkpoint 1
m_irrregData_startID
potp_llc_repl: checkpoint 1
m_irrregData_startID
potp_llc_repl: checkpoint 1
m_irrregData_startID
potp_llc_repl: checkpoint 1
m_irrregData_startID
potp_llc_repl: checkpoint 1
m_irrregData_startID
potp_llc_repl: checkpoint 1
m_irrregData_startID
potp_llc_repl: checkpoint 1
m_irrregData_startID
potp_llc_repl: checkpoint 1
m_irrregData_startID
potp_llc_repl: checkpoint 1
m_irrregData_startID
potp_llc_repl: checkpoint 1
m_irrregData_startID
potp_llc_repl: checkpoint 1
m_irrregData_startID
potp_llc_repl: checkpoint 1
m_irrregData_startID
potp_llc_repl: checkpoint 1
m_irrregData_startID
potp_llc_repl: checkpoint 1
m_irrregData_startID
potp_llc_repl: checkpoint 1
m_irrregData_startID
potp_llc_repl: checkpoint 1
m_irrregData_startID
potp_llc_repl: checkpoint 1
m_irrregData_startID
potp_llc_repl: checkpoint 1
m_irrregData_startID
potp_llc_repl: checkpoint 1
m_irrregData_startID
potp_llc_repl: checkpoint 1
m_irrregData_startID
potp_llc_repl: checkpoint 1
m_irrregData_startID
potp_llc_repl: checkpoint 1
m_irrregData_startID
potp_llc_repl: checkpoint 1
m_irrregData_startID
potp_llc_repl: checkpoint 1
m_irrregData_startID
potp_llc_repl: checkpoint 1
m_irrregData_startID
potp_llc_repl: checkpoint 1
m_irrregData_startID
potp_llc_repl: checkpoint 1
m_irrregData_startID
potp_llc_repl: checkpoint 1
m_irrregData_startID
potp_llc_repl: checkpoint 1
m_irrregData_startID
potp_llc_repl: checkpoint 1
m_irrregData_startID
potp_llc_repl: checkpoint 1
m_irrregData_startID
potp_llc_repl: checkpoint 1
m_irrregData_startID
potp_llc_repl: checkpoint 1
m_irrregData_startID
potp_llc_repl: checkpoint 1
m_irrregData_startID
potp_llc_repl: checkpoint 1
m_irrregData_startID
potp_llc_repl: checkpoint 1
m_irrregData_startID
potp_llc_repl: checkpoint 1
m_irrregData_startID
potp_llc_repl: checkpoint 1
m_irrregData_startID
potp_llc_repl: checkpoint 1
m_irrregData_startID
potp_llc_repl: checkpoint 1
m_irrregData_startID
potp_llc_repl: checkpoint 1
m_irrregData_startID
potp_llc_repl: checkpoint 1
m_irrregData_startID
potp_llc_repl: checkpoint 1
m_irrregData_startID
potp_llc_repl: checkpoint 1
m_irrregData_startID
potp_llc_repl: checkpoint 1
m_irrregData_startID
potp_llc_repl: checkpoint 1
m_irrregData_startID
potp_llc_repl: checkpoint 1
m_irrregData_startID
potp_llc_repl: checkpoint 1
m_irrregData_startID
potp_llc_repl: checkpoint 1
m_irrregData_startID
potp_llc_repl: checkpoint 1
m_irrregData_startID
potp_llc_repl: checkpoint 1
m_irrregData_startID
potp_llc_repl: checkpoint 1
m_irrregData_startID
potp_llc_repl: checkpoint 1
m_irrregData_startID
potp_llc_repl: checkpoint 1
m_irrregData_startID
potp_llc_repl: checkpoint 1
m_irrregData_startID
potp_llc_repl: checkpoint 1
m_irrregData_startID
potp_llc_repl: checkpoint 1
m_irrregData_startID
potp_llc_repl: checkpoint 1
m_irrregData_startID
potp_llc_repl: checkpoint 1
m_irrregData_startID
potp_llc_repl: checkpoint 1
m_irrregData_startID
potp_llc_repl: checkpoint 1
m_irrregData_startID
potp_llc_repl: checkpoint 1
m_irrregData_startID
potp_llc_repl: checkpoint 1
m_irrregData_startID
potp_llc_repl: checkpoint 1
m_irrregData_startID
potp_llc_repl: checkpoint 1
m_irrregData_startID
potp_llc_repl: checkpoint 1
m_irrregData_startID
potp_llc_repl: checkpoint 1
m_irrregData_startID
potp_llc_repl: checkpoint 1
m_irrregData_startID
potp_llc_repl: checkpoint 1
m_irrregData_startID
potp_llc_repl: checkpoint 1
m_irrregData_startID
potp_llc_repl: checkpoint 1
m_irrregData_startID
potp_llc_repl: checkpoint 1
m_irrregData_startID
potp_llc_repl: checkpoint 1
m_irrregData_startID
potp_llc_repl: checkpoint 1
m_irrregData_startID
potp_llc_repl: checkpoint 1
m_irrregData_startID
potp_llc_repl: checkpoint 1
m_irrregData_startID
potp_llc_repl: checkpoint 1
m_irrregData_startID
potp_llc_repl: checkpoint 1
m_irrregData_startID
potp_llc_repl: checkpoint 1
m_irrregData_startID
potp_llc_repl: checkpoint 1
m_irrregData_startID
potp_llc_repl: checkpoint 1
m_irrregData_startID
potp_llc_repl: checkpoint 1
m_irrregData_startID
potp_llc_repl: checkpoint 1
m_irrregData_startID
potp_llc_repl: checkpoint 1
m_irrregData_startID
potp_llc_repl: checkpoint 1
m_irrregData_startID
potp_llc_repl: checkpoint 1
m_irrregData_startID
potp_llc_repl: checkpoint 1
m_irrregData_startID
potp_llc_repl: checkpoint 1
m_irrregData_startID
potp_llc_repl: checkpoint 1
m_irrregData_startID
potp_llc_repl: checkpoint 1
m_irrregData_startID
potp_llc_repl: checkpoint 1
m_irrregData_startID
potp_llc_repl: checkpoint 1
m_irrregData_startID
potp_llc_repl: checkpoint 1
m_irrregData_startID
potp_llc_repl: checkpoint 1
m_irrregData_startID
potp_llc_repl: checkpoint 1
m_irrregData_startID
potp_llc_repl: checkpoint 1
m_irrregData_startID
potp_llc_repl: checkpoint 1
m_irrregData_startID
potp_llc_repl: checkpoint 1
m_irrregData_startID
potp_llc_repl: checkpoint 1
m_irrregData_startID
potp_llc_repl: checkpoint 1
m_irrregData_startID
potp_llc_repl: checkpoint 1
m_irrregData_startID
potp_llc_repl: checkpoint 1
m_irrregData_startID
potp_llc_repl: checkpoint 1
m_irrregData_startID
potp_llc_repl: checkpoint 1
m_irrregData_startID
potp_llc_repl: checkpoint 1
m_irrregData_startID
potp_llc_repl: checkpoint 1
m_irrregData_startID
potp_llc_repl: checkpoint 1
m_irrregData_startID
potp_llc_repl: checkpoint 1
m_irrregData_startID
potp_llc_repl: checkpoint 1
m_irrregData_startID
potp_llc_repl: checkpoint 1
m_irrregData_startID
potp_llc_repl: checkpoint 1
m_irrregData_startID
potp_llc_repl: checkpoint 1
m_irrregData_startID
potp_llc_repl: checkpoint 1
m_irrregData_startID
potp_llc_repl: checkpoint 1
m_irrregData_startID
potp_llc_repl: checkpoint 1
m_irrregData_startID
potp_llc_repl: checkpoint 1
m_irrregData_startID
potp_llc_repl: checkpoint 1
m_irrregData_startID
potp_llc_repl: checkpoint 1
m_irrregData_startID
potp_llc_repl: checkpoint 1
m_irrregData_startID
potp_llc_repl: checkpoint 1
m_irrregData_startID
potp_llc_repl: checkpoint 1
m_irrregData_startID
potp_llc_repl: checkpoint 1
m_irrregData_startID
potp_llc_repl: checkpoint 1
m_irrregData_startID
potp_llc_repl: checkpoint 1
m_irrregData_startID
potp_llc_repl: checkpoint 1
m_irrregData_startID
potp_llc_repl: checkpoint 1
m_irrregData_startID
potp_llc_repl: checkpoint 1
m_irrregData_startID
potp_llc_repl: checkpoint 1
m_irrregData_startID
potp_llc_repl: checkpoint 1
m_irrregData_startID
potp_llc_repl: checkpoint 1
m_irrregData_startID
potp_llc_repl: checkpoint 1
m_irrregData_startID
potp_llc_repl: checkpoint 1
m_irrregData_startID
potp_llc_repl: checkpoint 1
m_irrregData_startID
potp_llc_repl: checkpoint 1
m_irrregData_startID
potp_llc_repl: checkpoint 1
m_irrregData_startID
potp_llc_repl: checkpoint 1
m_irrregData_startID
potp_llc_repl: checkpoint 1
m_irrregData_startID
potp_llc_repl: checkpoint 1
m_irrregData_startID
potp_llc_repl: checkpoint 1
m_irrregData_startID
potp_llc_repl: checkpoint 1
m_irrregData_startID
potp_llc_repl: checkpoint 1
m_irrregData_startID
potp_llc_repl: checkpoint 1
m_irrregData_startID
potp_llc_repl: checkpoint 1
m_irrregData_startID
potp_llc_repl: checkpoint 1
m_irrregData_startID
potp_llc_repl: checkpoint 1
m_irrregData_startID
potp_llc_repl: checkpoint 1
m_irrregData_startID
potp_llc_repl: checkpoint 1
m_irrregData_startID
potp_llc_repl: checkpoint 1
m_irrregData_startID
potp_llc_repl: checkpoint 1
m_irrregData_startID
potp_llc_repl: checkpoint 1
m_irrregData_startID
potp_llc_repl: checkpoint 1
m_irrregData_startID
potp_llc_repl: checkpoint 1
m_irrregData_startID
potp_llc_repl: checkpoint 1
m_irrregData_startID
potp_llc_repl: checkpoint 1
m_irrregData_startID
potp_llc_repl: checkpoint 1
m_irrregData_startID
potp_llc_repl: checkpoint 1
m_irrregData_startID
potp_llc_repl: checkpoint 1
m_irrregData_startID
potp_llc_repl: checkpoint 1
m_irrregData_startID
potp_llc_repl: checkpoint 1
m_irrregData_startID
potp_llc_repl: checkpoint 1
m_irrregData_startID
potp_llc_repl: checkpoint 1
m_irrregData_startID
potp_llc_repl: checkpoint 1
m_irrregData_startID
potp_llc_repl: checkpoint 1
m_irrregData_startID
potp_llc_repl: checkpoint 1
m_irrregData_startID
potp_llc_repl: checkpoint 1
m_irrregData_startID
potp_llc_repl: checkpoint 1
m_irrregData_startID
potp_llc_repl: checkpoint 1
m_irrregData_startID
potp_llc_repl: checkpoint 1
m_irrregData_startID
potp_llc_repl: checkpoint 1
m_irrregData_startID
potp_llc_repl: checkpoint 1
m_irrregData_startID
potp_llc_repl: checkpoint 1
m_irrregData_startID
potp_llc_repl: checkpoint 1
m_irrregData_startID
potp_llc_repl: checkpoint 1
m_irrregData_startID
potp_llc_repl: checkpoint 1
m_irrregData_startID
potp_llc_repl: checkpoint 1
m_irrregData_startID
potp_llc_repl: checkpoint 1
m_irrregData_startID
potp_llc_repl: checkpoint 1
m_irrregData_startID
potp_llc_repl: checkpoint 1
m_irrregData_startID
potp_llc_repl: checkpoint 1
m_irrregData_startID
potp_llc_repl: checkpoint 1
m_irrregData_startID
potp_llc_repl: checkpoint 1
m_irrregData_startID
potp_llc_repl: checkpoint 1
m_irrregData_startID
potp_llc_repl: checkpoint 1
m_irrregData_startID
potp_llc_repl: checkpoint 1
m_irrregData_startID
potp_llc_repl: checkpoint 1
m_irrregData_startID
potp_llc_repl: checkpoint 1
m_irrregData_startID
potp_llc_repl: checkpoint 1
m_irrregData_startID
potp_llc_repl: checkpoint 1
m_irrregData_startID
potp_llc_repl: checkpoint 1
m_irrregData_startID
potp_llc_repl: checkpoint 1
m_irrregData_startID
potp_llc_repl: checkpoint 1
m_irrregData_startID
potp_llc_repl: checkpoint 1
m_irrregData_startID
potp_llc_repl: checkpoint 1
m_irrregData_startID
potp_llc_repl: checkpoint 1
m_irrregData_startID
potp_llc_repl: checkpoint 1
m_irrregData_startID
potp_llc_repl: checkpoint 1
m_irrregData_startID
potp_llc_repl: checkpoint 1
m_irrregData_startID
potp_llc_repl: checkpoint 1
m_irrregData_startID
potp_llc_repl: checkpoint 1
m_irrregData_startID
potp_llc_repl: checkpoint 1
m_irrregData_startID
potp_llc_repl: checkpoint 1
m_irrregData_startID
potp_llc_repl: checkpoint 1
m_irrregData_startID
potp_llc_repl: checkpoint 1
m_irrregData_startID
potp_llc_repl: checkpoint 1
m_irrregData_startID
potp_llc_repl: checkpoint 1
m_irrregData_startID
potp_llc_repl: checkpoint 1
m_irrregData_startID
potp_llc_repl: checkpoint 1
m_irrregData_startID
potp_llc_repl: checkpoint 1
m_irrregData_startID
potp_llc_repl: checkpoint 1
m_irrregData_startID
potp_llc_repl: checkpoint 1
m_irrregData_startID
potp_llc_repl: checkpoint 1
m_irrregData_startID
potp_llc_repl: checkpoint 1
m_irrregData_startID
potp_llc_repl: checkpoint 1
m_irrregData_startID
potp_llc_repl: checkpoint 1
m_irrregData_startID
potp_llc_repl: checkpoint 1
m_irrregData_startID
potp_llc_repl: checkpoint 1
m_irrregData_startID
potp_llc_repl: checkpoint 1
m_irrregData_startID
potp_llc_repl: checkpoint 1
m_irrregData_startID
potp_llc_repl: checkpoint 1
m_irrregData_startID
potp_llc_repl: checkpoint 1
m_irrregData_startID
potp_llc_repl: checkpoint 1
m_irrregData_startID
potp_llc_repl: checkpoint 1
m_irrregData_startID
potp_llc_repl: checkpoint 1
m_irrregData_startID
potp_llc_repl: checkpoint 1
m_irrregData_startID
potp_llc_repl: checkpoint 1
m_irrregData_startID
potp_llc_repl: checkpoint 1
m_irrregData_startID
potp_llc_repl: checkpoint 1
m_irrregData_startID
potp_llc_repl: checkpoint 1
m_irrregData_startID
potp_llc_repl: checkpoint 1
m_irrregData_startID
potp_llc_repl: checkpoint 1
m_irrregData_startID
potp_llc_repl: checkpoint 1
m_irrregData_startID
potp_llc_repl: checkpoint 1
m_irrregData_startID
potp_llc_repl: checkpoint 1
m_irrregData_startID
potp_llc_repl: checkpoint 1
m_irrregData_startID
potp_llc_repl: checkpoint 1
m_irrregData_startID
potp_llc_repl: checkpoint 1
m_irrregData_startID
potp_llc_repl: checkpoint 1
m_irrregData_startID
potp_llc_repl: checkpoint 1
m_irrregData_startID
potp_llc_repl: checkpoint 1
m_irrregData_startID
potp_llc_repl: checkpoint 1
m_irrregData_startID
potp_llc_repl: checkpoint 1
m_irrregData_startID
potp_llc_repl: checkpoint 1
m_irrregData_startID
potp_llc_repl: checkpoint 1
m_irrregData_startID
potp_llc_repl: checkpoint 1
m_irrregData_startID
potp_llc_repl: checkpoint 1
m_irrregData_startID
potp_llc_repl: checkpoint 1
m_irrregData_startID
potp_llc_repl: checkpoint 1
m_irrregData_startID
potp_llc_repl: checkpoint 1
m_irrregData_startID
potp_llc_repl: checkpoint 1
m_irrregData_startID
potp_llc_repl: checkpoint 1
m_irrregData_startID
potp_llc_repl: checkpoint 1
m_irrregData_startID
potp_llc_repl: checkpoint 1
m_irrregData_startID
potp_llc_repl: checkpoint 1
m_irrregData_startID
potp_llc_repl: checkpoint 1
m_irrregData_startID
potp_llc_repl: checkpoint 1
m_irrregData_startID
potp_llc_repl: checkpoint 1
m_irrregData_startID
potp_llc_repl: checkpoint 1
m_irrregData_startID
potp_llc_repl: checkpoint 1
m_irrregData_startID
potp_llc_repl: checkpoint 1
m_irrregData_startID
potp_llc_repl: checkpoint 1
m_irrregData_startID
potp_llc_repl: checkpoint 1
m_irrregData_startID
potp_llc_repl: checkpoint 1
m_irrregData_startID
potp_llc_repl: checkpoint 1
m_irrregData_startID
potp_llc_repl: checkpoint 1
m_irrregData_startID
potp_llc_repl: checkpoint 1
m_irrregData_startID
potp_llc_repl: checkpoint 1
m_irrregData_startID
potp_llc_repl: checkpoint 1
m_irrregData_startID
potp_llc_repl: checkpoint 1
m_irrregData_startID
potp_llc_repl: checkpoint 1
m_irrregData_startID
potp_llc_repl: checkpoint 1
m_irrregData_startID
potp_llc_repl: checkpoint 1
m_irrregData_startID
potp_llc_repl: checkpoint 1
m_irrregData_startID
potp_llc_repl: checkpoint 1
m_irrregData_startID
potp_llc_repl: checkpoint 1
m_irrregData_startID
potp_llc_repl: checkpoint 1
m_irrregData_startID
potp_llc_repl: checkpoint 1
m_irrregData_startID
potp_llc_repl: checkpoint 1
m_irrregData_startID
potp_llc_repl: checkpoint 1
m_irrregData_startID
potp_llc_repl: checkpoint 1
m_irrregData_startID
potp_llc_repl: checkpoint 1
m_irrregData_startID
potp_llc_repl: checkpoint 1
m_irrregData_startID
potp_llc_repl: checkpoint 1
m_irrregData_startID
potp_llc_repl: checkpoint 1
m_irrregData_startID
potp_llc_repl: checkpoint 1
m_irrregData_startID
potp_llc_repl: checkpoint 1
m_irrregData_startID
potp_llc_repl: checkpoint 1
m_irrregData_startID
potp_llc_repl: checkpoint 1
m_irrregData_startID
potp_llc_repl: checkpoint 1
m_irrregData_startID
potp_llc_repl: checkpoint 1
m_irrregData_startID
potp_llc_repl: checkpoint 1
m_irrregData_startID
potp_llc_repl: checkpoint 1
m_irrregData_startID
potp_llc_repl: checkpoint 1
m_irrregData_startID
potp_llc_repl: checkpoint 1
m_irrregData_startID
potp_llc_repl: checkpoint 1
m_irrregData_startID
potp_llc_repl: checkpoint 1
m_irrregData_startID
potp_llc_repl: checkpoint 1
m_irrregData_startID
potp_llc_repl: checkpoint 1
m_irrregData_startID
potp_llc_repl: checkpoint 1
m_irrregData_startID
potp_llc_repl: checkpoint 1
m_irrregData_startID
potp_llc_repl: checkpoint 1
m_irrregData_startID
potp_llc_repl: checkpoint 1
m_irrregData_startID
potp_llc_repl: checkpoint 1
m_irrregData_startID
potp_llc_repl: checkpoint 1
m_irrregData_startID
potp_llc_repl: checkpoint 1
m_irrregData_startID
potp_llc_repl: checkpoint 1
m_irrregData_startID
potp_llc_repl: checkpoint 1
m_irrregData_startID
potp_llc_repl: checkpoint 1
m_irrregData_startID
potp_llc_repl: checkpoint 1
m_irrregData_startID
potp_llc_repl: checkpoint 1
m_irrregData_startID
potp_llc_repl: checkpoint 1
m_irrregData_startID
potp_llc_repl: checkpoint 1
m_irrregData_startID
potp_llc_repl: checkpoint 1
m_irrregData_startID
potp_llc_repl: checkpoint 1
m_irrregData_startID
potp_llc_repl: checkpoint 1
m_irrregData_startID
potp_llc_repl: checkpoint 1
m_irrregData_startID
potp_llc_repl: checkpoint 1
m_irrregData_startID
potp_llc_repl: checkpoint 1
m_irrregData_startID
potp_llc_repl: checkpoint 1
m_irrregData_startID
potp_llc_repl: checkpoint 1
m_irrregData_startID
potp_llc_repl: checkpoint 1
m_irrregData_startID
potp_llc_repl: checkpoint 1
m_irrregData_startID
potp_llc_repl: checkpoint 1
m_irrregData_startID
potp_llc_repl: checkpoint 1
m_irrregData_startID
potp_llc_repl: checkpoint 1
m_irrregData_startID
potp_llc_repl: checkpoint 1
m_irrregData_startID
potp_llc_repl: checkpoint 1
m_irrregData_startID
potp_llc_repl: checkpoint 1
m_irrregData_startID
potp_llc_repl: checkpoint 1
m_irrregData_startID
potp_llc_repl: checkpoint 1
m_irrregData_startID
potp_llc_repl: checkpoint 1
m_irrregData_startID
potp_llc_repl: checkpoint 1
m_irrregData_startID
potp_llc_repl: checkpoint 1
m_irrregData_startID
potp_llc_repl: checkpoint 1
m_irrregData_startID
potp_llc_repl: checkpoint 1
m_irrregData_startID
potp_llc_repl: checkpoint 1
m_irrregData_startID
potp_llc_repl: checkpoint 1
m_irrregData_startID
potp_llc_repl: checkpoint 1
m_irrregData_startID
potp_llc_repl: checkpoint 1
m_irrregData_startID
potp_llc_repl: checkpoint 1
m_irrregData_startID
potp_llc_repl: checkpoint 1
m_irrregData_startID
potp_llc_repl: checkpoint 1
m_irrregData_startID
potp_llc_repl: checkpoint 1
m_irrregData_startID
potp_llc_repl: checkpoint 1
m_irrregData_startID
potp_llc_repl: checkpoint 1
m_irrregData_startID
potp_llc_repl: checkpoint 1
m_irrregData_startID
potp_llc_repl: checkpoint 1
m_irrregData_startID
potp_llc_repl: checkpoint 1
m_irrregData_startID
potp_llc_repl: checkpoint 1
m_irrregData_startID
potp_llc_repl: checkpoint 1
m_irrregData_startID
potp_llc_repl: checkpoint 1
m_irrregData_startID
potp_llc_repl: checkpoint 1
m_irrregData_startID
potp_llc_repl: checkpoint 1
m_irrregData_startID
potp_llc_repl: checkpoint 1
m_irrregData_startID
potp_llc_repl: checkpoint 1
m_irrregData_startID
potp_llc_repl: checkpoint 1
m_irrregData_startID
potp_llc_repl: checkpoint 1
m_irrregData_startID
potp_llc_repl: checkpoint 1
m_irrregData_startID
potp_llc_repl: checkpoint 1
m_irrregData_startID
potp_llc_repl: checkpoint 1
m_irrregData_startID
potp_llc_repl: checkpoint 1
m_irrregData_startID
potp_llc_repl: checkpoint 1
m_irrregData_startID
potp_llc_repl: checkpoint 1
m_irrregData_startID
potp_llc_repl: checkpoint 1
m_irrregData_startID
potp_llc_repl: checkpoint 1
m_irrregData_startID
potp_llc_repl: checkpoint 1
m_irrregData_startID
potp_llc_repl: checkpoint 1
m_irrregData_startID
potp_llc_repl: checkpoint 1
m_irrregData_startID
potp_llc_repl: checkpoint 1
m_irrregData_startID
potp_llc_repl: checkpoint 1
m_irrregData_startID
potp_llc_repl: checkpoint 1
m_irrregData_startID
potp_llc_repl: checkpoint 1
m_irrregData_startID
potp_llc_repl: checkpoint 1
m_irrregData_startID
potp_llc_repl: checkpoint 1
m_irrregData_startID
potp_llc_repl: checkpoint 1
m_irrregData_startID
potp_llc_repl: checkpoint 1
m_irrregData_startID
potp_llc_repl: checkpoint 1
m_irrregData_startID
potp_llc_repl: checkpoint 1
m_irrregData_startID
potp_llc_repl: checkpoint 1
m_irrregData_startID
potp_llc_repl: checkpoint 1
m_irrregData_startID
potp_llc_repl: checkpoint 1
m_irrregData_startID
potp_llc_repl: checkpoint 1
m_irrregData_startID
potp_llc_repl: checkpoint 1
m_irrregData_startID
potp_llc_repl: checkpoint 1
m_irrregData_startID
potp_llc_repl: checkpoint 1
m_irrregData_startID
potp_llc_repl: checkpoint 1
m_irrregData_startID
potp_llc_repl: checkpoint 1
m_irrregData_startID
potp_llc_repl: checkpoint 1
m_irrregData_startID
potp_llc_repl: checkpoint 1
m_irrregData_startID
potp_llc_repl: checkpoint 1
m_irrregData_startID
potp_llc_repl: checkpoint 1
m_irrregData_startID
potp_llc_repl: checkpoint 1
m_irrregData_startID
potp_llc_repl: checkpoint 1
m_irrregData_startID
potp_llc_repl: checkpoint 1
m_irrregData_startID
potp_llc_repl: checkpoint 1
m_irrregData_startID
potp_llc_repl: checkpoint 1
m_irrregData_startID
potp_llc_repl: checkpoint 1
m_irrregData_startID
potp_llc_repl: checkpoint 1
m_irrregData_startID
potp_llc_repl: checkpoint 1
m_irrregData_startID
potp_llc_repl: checkpoint 1
m_irrregData_startID
potp_llc_repl: checkpoint 1
m_irrregData_startID
potp_llc_repl: checkpoint 1
m_irrregData_startID
potp_llc_repl: checkpoint 1
m_irrregData_startID
potp_llc_repl: checkpoint 1
m_irrregData_startID
potp_llc_repl: checkpoint 1
m_irrregData_startID
potp_llc_repl: checkpoint 1
m_irrregData_startID
potp_llc_repl: checkpoint 1
m_irrregData_startID
potp_llc_repl: checkpoint 1
m_irrregData_startID
potp_llc_repl: checkpoint 1
m_irrregData_startID
potp_llc_repl: checkpoint 1
m_irrregData_startID
potp_llc_repl: checkpoint 1
m_irrregData_startID
potp_llc_repl: checkpoint 1
m_irrregData_startID
potp_llc_repl: checkpoint 1
m_irrregData_startID
potp_llc_repl: checkpoint 1
m_irrregData_startID
potp_llc_repl: checkpoint 1
m_irrregData_startID
potp_llc_repl: checkpoint 1
m_irrregData_startID
potp_llc_repl: checkpoint 1
m_irrregData_startID
potp_llc_repl: checkpoint 1
m_irrregData_startID
potp_llc_repl: checkpoint 1
m_irrregData_startID
potp_llc_repl: checkpoint 1
m_irrregData_startID
potp_llc_repl: checkpoint 1
m_irrregData_startID
potp_llc_repl: checkpoint 1
m_irrregData_startID
potp_llc_repl: checkpoint 1
m_irrregData_startID
potp_llc_repl: checkpoint 1
m_irrregData_startID
potp_llc_repl: checkpoint 1
m_irrregData_startID
potp_llc_repl: checkpoint 1
m_irrregData_startID
potp_llc_repl: checkpoint 1
m_irrregData_startID
potp_llc_repl: checkpoint 1
m_irrregData_startID
potp_llc_repl: checkpoint 1
m_irrregData_startID
potp_llc_repl: checkpoint 1
m_irrregData_startID
potp_llc_repl: checkpoint 1
m_irrregData_startID
potp_llc_repl: checkpoint 1
m_irrregData_startID
potp_llc_repl: checkpoint 1
m_irrregData_startID
potp_llc_repl: checkpoint 1
m_irrregData_startID
potp_llc_repl: checkpoint 1
m_irrregData_startID
potp_llc_repl: checkpoint 1
m_irrregData_startID
potp_llc_repl: checkpoint 1
m_irrregData_startID
potp_llc_repl: checkpoint 1
m_irrregData_startID
potp_llc_repl: checkpoint 1
m_irrregData_startID
potp_llc_repl: checkpoint 1
m_irrregData_startID
potp_llc_repl: checkpoint 1
m_irrregData_startID
potp_llc_repl: checkpoint 1
m_irrregData_startID
potp_llc_repl: checkpoint 1
m_irrregData_startID
potp_llc_repl: checkpoint 1
m_irrregData_startID
potp_llc_repl: checkpoint 1
m_irrregData_startID
potp_llc_repl: checkpoint 1
m_irrregData_startID
potp_llc_repl: checkpoint 1
m_irrregData_startID
potp_llc_repl: checkpoint 1
m_irrregData_startID
potp_llc_repl: checkpoint 1
m_irrregData_startID
potp_llc_repl: checkpoint 1
m_irrregData_startID
potp_llc_repl: checkpoint 1
m_irrregData_startID
potp_llc_repl: checkpoint 1
m_irrregData_startID
potp_llc_repl: checkpoint 1
m_irrregData_startID
potp_llc_repl: checkpoint 1
m_irrregData_startID
potp_llc_repl: checkpoint 1
m_irrregData_startID
potp_llc_repl: checkpoint 1
m_irrregData_startID
potp_llc_repl: checkpoint 1
m_irrregData_startID
potp_llc_repl: checkpoint 1
m_irrregData_startID
potp_llc_repl: checkpoint 1
m_irrregData_startID
potp_llc_repl: checkpoint 1
m_irrregData_startID
potp_llc_repl: checkpoint 1
m_irrregData_startID
potp_llc_repl: checkpoint 1
m_irrregData_startID
potp_llc_repl: checkpoint 1
m_irrregData_startID
potp_llc_repl: checkpoint 1
m_irrregData_startID
potp_llc_repl: checkpoint 1
m_irrregData_startID
potp_llc_repl: checkpoint 1
m_irrregData_startID
potp_llc_repl: checkpoint 1
m_irrregData_startID
potp_llc_repl: checkpoint 1
m_irrregData_startID
potp_llc_repl: checkpoint 1
m_irrregData_startID
potp_llc_repl: checkpoint 1
m_irrregData_startID
potp_llc_repl: checkpoint 1
m_irrregData_startID
potp_llc_repl: checkpoint 1
m_irrregData_startID
potp_llc_repl: checkpoint 1
m_irrregData_startID
potp_llc_repl: checkpoint 1
m_irrregData_startID
potp_llc_repl: checkpoint 1
m_irrregData_startID
potp_llc_repl: checkpoint 1
m_irrregData_startID
potp_llc_repl: checkpoint 1
m_irrregData_startID
potp_llc_repl: checkpoint 1
m_irrregData_startID
potp_llc_repl: checkpoint 1
m_irrregData_startID
potp_llc_repl: checkpoint 1
m_irrregData_startID
potp_llc_repl: checkpoint 1
m_irrregData_startID
potp_llc_repl: checkpoint 1
m_irrregData_startID
potp_llc_repl: checkpoint 1
m_irrregData_startID
potp_llc_repl: checkpoint 1
m_irrregData_startID
potp_llc_repl: checkpoint 1
m_irrregData_startID
potp_llc_repl: checkpoint 1
m_irrregData_startID
potp_llc_repl: checkpoint 1
m_irrregData_startID
potp_llc_repl: checkpoint 1
m_irrregData_startID
potp_llc_repl: checkpoint 1
m_irrregData_startID
potp_llc_repl: checkpoint 1
m_irrregData_startID
potp_llc_repl: checkpoint 1
m_irrregData_startID
potp_llc_repl: checkpoint 1
m_irrregData_startID
potp_llc_repl: checkpoint 1
m_irrregData_startID
potp_llc_repl: checkpoint 1
m_irrregData_startID
potp_llc_repl: checkpoint 1
m_irrregData_startID
potp_llc_repl: checkpoint 1
m_irrregData_startID
potp_llc_repl: checkpoint 1
m_irrregData_startID
potp_llc_repl: checkpoint 1
m_irrregData_startID
potp_llc_repl: checkpoint 1
m_irrregData_startID
potp_llc_repl: checkpoint 1
m_irrregData_startID
potp_llc_repl: checkpoint 1
m_irrregData_startID
potp_llc_repl: checkpoint 1
m_irrregData_startID
potp_llc_repl: checkpoint 1
m_irrregData_startID
potp_llc_repl: checkpoint 1
m_irrregData_startID
potp_llc_repl: checkpoint 1
m_irrregData_startID
potp_llc_repl: checkpoint 1
m_irrregData_startID
potp_llc_repl: checkpoint 1
m_irrregData_startID
potp_llc_repl: checkpoint 1
m_irrregData_startID
potp_llc_repl: checkpoint 1
m_irrregData_startID
potp_llc_repl: checkpoint 1
m_irrregData_startID
potp_llc_repl: checkpoint 1
m_irrregData_startID
potp_llc_repl: checkpoint 1
m_irrregData_startID
potp_llc_repl: checkpoint 1
m_irrregData_startID
potp_llc_repl: checkpoint 1
m_irrregData_startID
potp_llc_repl: checkpoint 1
m_irrregData_startID
potp_llc_repl: checkpoint 1
m_irrregData_startID
potp_llc_repl: checkpoint 1
m_irrregData_startID
potp_llc_repl: checkpoint 1
m_irrregData_startID
potp_llc_repl: checkpoint 1
m_irrregData_startID
potp_llc_repl: checkpoint 1
m_irrregData_startID
potp_llc_repl: checkpoint 1
m_irrregData_startID
potp_llc_repl: checkpoint 1
m_irrregData_startID
potp_llc_repl: checkpoint 1
m_irrregData_startID
potp_llc_repl: checkpoint 1
m_irrregData_startID
potp_llc_repl: checkpoint 1
m_irrregData_startID
potp_llc_repl: checkpoint 1
m_irrregData_startID
potp_llc_repl: checkpoint 1
m_irrregData_startID
potp_llc_repl: checkpoint 1
m_irrregData_startID
potp_llc_repl: checkpoint 1
m_irrregData_startID
potp_llc_repl: checkpoint 1
m_irrregData_startID
potp_llc_repl: checkpoint 1
m_irrregData_startID
potp_llc_repl: checkpoint 1
m_irrregData_startID
potp_llc_repl: checkpoint 1
m_irrregData_startID
potp_llc_repl: checkpoint 1
m_irrregData_startID
potp_llc_repl: checkpoint 1
m_irrregData_startID
potp_llc_repl: checkpoint 1
m_irrregData_startID
potp_llc_repl: checkpoint 1
m_irrregData_startID
potp_llc_repl: checkpoint 1
m_irrregData_startID
potp_llc_repl: checkpoint 1
m_irrregData_startID
potp_llc_repl: checkpoint 1
m_irrregData_startID
potp_llc_repl: checkpoint 1
m_irrregData_startID
potp_llc_repl: checkpoint 1
m_irrregData_startID
potp_llc_repl: checkpoint 1
m_irrregData_startID
potp_llc_repl: checkpoint 1
m_irrregData_startID
potp_llc_repl: checkpoint 1
m_irrregData_startID
potp_llc_repl: checkpoint 1
m_irrregData_startID
potp_llc_repl: checkpoint 1
m_irrregData_startID
potp_llc_repl: checkpoint 1
m_irrregData_startID
potp_llc_repl: checkpoint 1
m_irrregData_startID
potp_llc_repl: checkpoint 1
m_irrregData_startID
potp_llc_repl: checkpoint 1
m_irrregData_startID
potp_llc_repl: checkpoint 1
m_irrregData_startID
potp_llc_repl: checkpoint 1
m_irrregData_startID
potp_llc_repl: checkpoint 1
m_irrregData_startID
potp_llc_repl: checkpoint 1
m_irrregData_startID
potp_llc_repl: checkpoint 1
m_irrregData_startID
potp_llc_repl: checkpoint 1
m_irrregData_startID
potp_llc_repl: checkpoint 1
m_irrregData_startID
potp_llc_repl: checkpoint 1
m_irrregData_startID
potp_llc_repl: checkpoint 1
m_irrregData_startID
potp_llc_repl: checkpoint 1
m_irrregData_startID
potp_llc_repl: checkpoint 1
m_irrregData_startID
potp_llc_repl: checkpoint 1
m_irrregData_startID
potp_llc_repl: checkpoint 1
m_irrregData_startID
potp_llc_repl: checkpoint 1
m_irrregData_startID
potp_llc_repl: checkpoint 1
m_irrregData_startID
potp_llc_repl: checkpoint 1
m_irrregData_startID
potp_llc_repl: checkpoint 1
m_irrregData_startID
potp_llc_repl: checkpoint 1
m_irrregData_startID
potp_llc_repl: checkpoint 1
m_irrregData_startID
potp_llc_repl: checkpoint 1
m_irrregData_startID
potp_llc_repl: checkpoint 1
m_irrregData_startID
potp_llc_repl: checkpoint 1
m_irrregData_startID
potp_llc_repl: checkpoint 1
m_irrregData_startID
potp_llc_repl: checkpoint 1
m_irrregData_startID
potp_llc_repl: checkpoint 1
m_irrregData_startID
potp_llc_repl: checkpoint 1
m_irrregData_startID
potp_llc_repl: checkpoint 1
m_irrregData_startID
potp_llc_repl: checkpoint 1
m_irrregData_startID
potp_llc_repl: checkpoint 1
m_irrregData_startID
potp_llc_repl: checkpoint 1
m_irrregData_startID
potp_llc_repl: checkpoint 1
m_irrregData_startID
potp_llc_repl: checkpoint 1
m_irrregData_startID
potp_llc_repl: checkpoint 1
m_irrregData_startID
potp_llc_repl: checkpoint 1
m_irrregData_startID
potp_llc_repl: checkpoint 1
m_irrregData_startID
potp_llc_repl: checkpoint 1
m_irrregData_startID
potp_llc_repl: checkpoint 1
m_irrregData_startID
potp_llc_repl: checkpoint 1
m_irrregData_startID
potp_llc_repl: checkpoint 1
m_irrregData_startID
potp_llc_repl: checkpoint 1
m_irrregData_startID
potp_llc_repl: checkpoint 1
m_irrregData_startID
potp_llc_repl: checkpoint 1
m_irrregData_startID
potp_llc_repl: checkpoint 1
m_irrregData_startID
potp_llc_repl: checkpoint 1
m_irrregData_startID
potp_llc_repl: checkpoint 1
m_irrregData_startID
potp_llc_repl: checkpoint 1
m_irrregData_startID
potp_llc_repl: checkpoint 1
m_irrregData_startID
potp_llc_repl: checkpoint 1
m_irrregData_startID
potp_llc_repl: checkpoint 1
m_irrregData_startID
potp_llc_repl: checkpoint 1
m_irrregData_startID
potp_llc_repl: checkpoint 1
m_irrregData_startID
potp_llc_repl: checkpoint 1
m_irrregData_startID
potp_llc_repl: checkpoint 1
m_irrregData_startID
potp_llc_repl: checkpoint 1
m_irrregData_startID
potp_llc_repl: checkpoint 1
m_irrregData_startID
potp_llc_repl: checkpoint 1
m_irrregData_startID
potp_llc_repl: checkpoint 1
m_irrregData_startID
potp_llc_repl: checkpoint 1
m_irrregData_startID
potp_llc_repl: checkpoint 1
m_irrregData_startID
potp_llc_repl: checkpoint 1
m_irrregData_startID
potp_llc_repl: checkpoint 1
m_irrregData_startID
potp_llc_repl: checkpoint 1
m_irrregData_startID
potp_llc_repl: checkpoint 1
m_irrregData_startID
potp_llc_repl: checkpoint 1
m_irrregData_startID
potp_llc_repl: checkpoint 1
m_irrregData_startID
potp_llc_repl: checkpoint 1
m_irrregData_startID
potp_llc_repl: checkpoint 1
m_irrregData_startID
potp_llc_repl: checkpoint 1
m_irrregData_startID
potp_llc_repl: checkpoint 1
m_irrregData_startID
potp_llc_repl: checkpoint 1
m_irrregData_startID
potp_llc_repl: checkpoint 1
m_irrregData_startID
potp_llc_repl: checkpoint 1
m_irrregData_startID
potp_llc_repl: checkpoint 1
m_irrregData_startID
potp_llc_repl: checkpoint 1
m_irrregData_startID
potp_llc_repl: checkpoint 1
m_irrregData_startID
potp_llc_repl: checkpoint 1
m_irrregData_startID
potp_llc_repl: checkpoint 1
m_irrregData_startID
potp_llc_repl: checkpoint 1
m_irrregData_startID
potp_llc_repl: checkpoint 1
m_irrregData_startID
potp_llc_repl: checkpoint 1
m_irrregData_startID
potp_llc_repl: checkpoint 1
m_irrregData_startID
[...]
potp_llc_repl: checkpoint 1
m_irrregData_startID
potp_llc_repl: checkpoint 1
m_irrregData_startID
potp_llc_repl: checkpoint 1
m_irrregData_startID
potp_llc_repl: checkpoint 1
m_irrregData_startID
potp_llc_repl: checkpoint 1
m_irrregData_startID
potp_llc_repl: checkpoint 1
m_irrregData_startID
potp_llc_repl: checkpoint 1
m_irrregData_startID
potp_llc_repl: checkpoint 1
m_irrregData_startID
potp_llc_repl: checkpoint 1
m_irrregData_startID
potp_llc_repl: checkpoint 1
m_irrregData_startID
potp_llc_repl: checkpoint 1
m_irrregData_startID
potp_llc_repl: checkpoint 1
m_irrregData_startID
potp_llc_repl: checkpoint 1
m_irrregData_startID
potp_llc_repl: checkpoint 1
m_irrregData_startID
potp_llc_repl: checkpoint 1
m_irrregData_startID
potp_llc_repl: checkpoint 1
m_irrregData_startID
potp_llc_repl: checkpoint 1
m_irrregData_startID
potp_llc_repl: checkpoint 1
m_irrregData_startID
potp_llc_repl: checkpoint 1
m_irrregData_startID
potp_llc_repl: checkpoint 1
m_irrregData_startID
potp_llc_repl: checkpoint 1
m_irrregData_startID
potp_llc_repl: checkpoint 1
m_irrregData_startID
potp_llc_repl: checkpoint 1
m_irrregData_startID
potp_llc_repl: checkpoint 1
m_irrregData_startID
potp_llc_repl: checkpoint 1
m_irrregData_startID
potp_llc_repl: checkpoint 1
m_irrregData_startID
potp_llc_repl: checkpoint 1
m_irrregData_startID
potp_llc_repl: checkpoint 1
m_irrregData_startID
potp_llc_repl: checkpoint 1
m_irrregData_startID
potp_llc_repl: checkpoint 1
m_irrregData_startID
potp_llc_repl: checkpoint 1
m_irrregData_startID
potp_llc_repl: checkpoint 1
m_irrregData_startID
potp_llc_repl: checkpoint 1
m_irrregData_startID
potp_llc_repl: checkpoint 1
m_irrregData_startID
potp_llc_repl: checkpoint 1
m_irrregData_startID
potp_llc_repl: checkpoint 1
m_irrregData_startID
potp_llc_repl: checkpoint 1
m_irrregData_startID
potp_llc_repl: checkpoint 1
m_irrregData_startID
potp_llc_repl: checkpoint 1
m_irrregData_startID
potp_llc_repl: checkpoint 1
m_irrregData_startID
potp_llc_repl: checkpoint 1
m_irrregData_startID
potp_llc_repl: checkpoint 1
m_irrregData_startID
potp_llc_repl: checkpoint 1
m_irrregData_startID
potp_llc_repl: checkpoint 1
m_irrregData_startID
potp_llc_repl: checkpoint 1
m_irrregData_startID
potp_llc_repl: checkpoint 1
m_irrregData_startID
potp_llc_repl: checkpoint 1
m_irrregData_startID
potp_llc_repl: checkpoint 1
m_irrregData_startID
potp_llc_repl: checkpoint 1
m_irrregData_startID
potp_llc_repl: checkpoint 1
m_irrregData_startID
potp_llc_repl: checkpoint 1
m_irrregData_startID
potp_llc_repl: checkpoint 1
m_irrregData_startID
potp_llc_repl: checkpoint 1
m_irrregData_startID
potp_llc_repl: checkpoint 1
m_irrregData_startID
potp_llc_repl: checkpoint 1
m_irrregData_startID
potp_llc_repl: checkpoint 1
m_irrregData_startID
potp_llc_repl: checkpoint 1
m_irrregData_startID
potp_llc_repl: checkpoint 1
m_irrregData_startID
potp_llc_repl: checkpoint 1
m_irrregData_startID
potp_llc_repl: checkpoint 1
m_irrregData_startID
potp_llc_repl: checkpoint 1
m_irrregData_startID
potp_llc_repl: checkpoint 1
m_irrregData_startID
potp_llc_repl: checkpoint 1
m_irrregData_startID
potp_llc_repl: checkpoint 1
m_irrregData_startID
potp_llc_repl: checkpoint 1
m_irrregData_startID
potp_llc_repl: checkpoint 1
m_irrregData_startID
potp_llc_repl: checkpoint 1
m_irrregData_startID
potp_llc_repl: checkpoint 1
m_irrregData_startID
potp_llc_repl: checkpoint 1
m_irrregData_startID
potp_llc_repl: checkpoint 1
m_irrregData_startID
potp_llc_repl: checkpoint 1
m_irrregData_startID
potp_llc_repl: checkpoint 1
m_irrregData_startID
potp_llc_repl: checkpoint 1
m_irrregData_startID
potp_llc_repl: checkpoint 1
m_irrregData_startID
potp_llc_repl: checkpoint 1
m_irrregData_startID
potp_llc_repl: checkpoint 1
m_irrregData_startID
potp_llc_repl: checkpoint 1
m_irrregData_startID
potp_llc_repl: checkpoint 1
m_irrregData_startID
potp_llc_repl: checkpoint 1
m_irrregData_startID
potp_llc_repl: checkpoint 1
m_irrregData_startID
potp_llc_repl: checkpoint 1
m_irrregData_startID
potp_llc_repl: checkpoint 1
m_irrregData_startID
potp_llc_repl: checkpoint 1
m_irrregData_startID
potp_llc_repl: checkpoint 1
m_irrregData_startID
potp_llc_repl: checkpoint 1
m_irrregData_startID
potp_llc_repl: checkpoint 1
m_irrregData_startID
potp_llc_repl: checkpoint 1
m_irrregData_startID
potp_llc_repl: checkpoint 1
m_irrregData_startID
potp_llc_repl: checkpoint 1
m_irrregData_startID
potp_llc_repl: checkpoint 1
m_irrregData_startID
potp_llc_repl: checkpoint 1
m_irrregData_startID
potp_llc_repl: checkpoint 1
m_irrregData_startID
potp_llc_repl: checkpoint 1
m_irrregData_startID
potp_llc_repl: checkpoint 1
m_irrregData_startID
potp_llc_repl: checkpoint 1
m_irrregData_startID
potp_llc_repl: checkpoint 1
m_irrregData_startID
potp_llc_repl: checkpoint 1
m_irrregData_startID
potp_llc_repl: checkpoint 1
m_irrregData_startID
potp_llc_repl: checkpoint 1
m_irrregData_startID
potp_llc_repl: checkpoint 1
m_irrregData_startID
potp_llc_repl: checkpoint 1
m_irrregData_startID
potp_llc_repl: checkpoint 1
m_irrregData_startID
potp_llc_repl: checkpoint 1
m_irrregData_startID
potp_llc_repl: checkpoint 1
m_irrregData_startID
potp_llc_repl: checkpoint 1
m_irrregData_startID
potp_llc_repl: checkpoint 1
m_irrregData_startID
potp_llc_repl: checkpoint 1
m_irrregData_startID
potp_llc_repl: checkpoint 1
m_irrregData_startID
potp_llc_repl: checkpoint 1
m_irrregData_startID
potp_llc_repl: checkpoint 1
m_irrregData_startID
potp_llc_repl: checkpoint 1
m_irrregData_startID
potp_llc_repl: checkpoint 1
m_irrregData_startID
potp_llc_repl: checkpoint 1
m_irrregData_startID
potp_llc_repl: checkpoint 1
m_irrregData_startID
potp_llc_repl: checkpoint 1
m_irrregData_startID
potp_llc_repl: checkpoint 1
m_irrregData_startID
potp_llc_repl: checkpoint 1
m_irrregData_startID
potp_llc_repl: checkpoint 1
m_irrregData_startID
potp_llc_repl: checkpoint 1
m_irrregData_startID
potp_llc_repl: checkpoint 1
m_irrregData_startID
potp_llc_repl: checkpoint 1
m_irrregData_startID
potp_llc_repl: checkpoint 1
m_irrregData_startID
potp_llc_repl: checkpoint 1
m_irrregData_startID
potp_llc_repl: checkpoint 1
m_irrregData_startID
potp_llc_repl: checkpoint 1
m_irrregData_startID
potp_llc_repl: checkpoint 1
m_irrregData_startID
potp_llc_repl: checkpoint 1
m_irrregData_startID
potp_llc_repl: checkpoint 1
m_irrregData_startID
potp_llc_repl: checkpoint 1
m_irrregData_startID
potp_llc_repl: checkpoint 1
m_irrregData_startID
potp_llc_repl: checkpoint 1
m_irrregData_startID
potp_llc_repl: checkpoint 1
m_irrregData_startID
potp_llc_repl: checkpoint 1
m_irrregData_startID
potp_llc_repl: checkpoint 1
m_irrregData_startID
potp_llc_repl: checkpoint 1
m_irrregData_startID
potp_llc_repl: checkpoint 1
m_irrregData_startID
potp_llc_repl: checkpoint 1
m_irrregData_startID
potp_llc_repl: checkpoint 1
m_irrregData_startID
potp_llc_repl: checkpoint 1
m_irrregData_startID
potp_llc_repl: checkpoint 1
m_irrregData_startID
potp_llc_repl: checkpoint 1
m_irrregData_startID
potp_llc_repl: checkpoint 1
m_irrregData_startID
potp_llc_repl: checkpoint 1
m_irrregData_startID
potp_llc_repl: checkpoint 1
m_irrregData_startID
potp_llc_repl: checkpoint 1
m_irrregData_startID
potp_llc_repl: checkpoint 1
m_irrregData_startID
potp_llc_repl: checkpoint 1
m_irrregData_startID
potp_llc_repl: checkpoint 1
m_irrregData_startID
potp_llc_repl: checkpoint 1
m_irrregData_startID
potp_llc_repl: checkpoint 1
m_irrregData_startID
potp_llc_repl: checkpoint 1
m_irrregData_startID
potp_llc_repl: checkpoint 1
m_irrregData_startID
potp_llc_repl: checkpoint 1
m_irrregData_startID
potp_llc_repl: checkpoint 1
m_irrregData_startID
potp_llc_repl: checkpoint 1
m_irrregData_startID
potp_llc_repl: checkpoint 1
m_irrregData_startID
potp_llc_repl: checkpoint 1
m_irrregData_startID
potp_llc_repl: checkpoint 1
m_irrregData_startID
potp_llc_repl: checkpoint 1
m_irrregData_startID
potp_llc_repl: checkpoint 1
m_irrregData_startID
potp_llc_repl: checkpoint 1
m_irrregData_startID
potp_llc_repl: checkpoint 1
m_irrregData_startID
potp_llc_repl: checkpoint 1
m_irrregData_startID
potp_llc_repl: checkpoint 1
m_irrregData_startID
potp_llc_repl: checkpoint 1
m_irrregData_startID
potp_llc_repl: checkpoint 1
m_irrregData_startID
potp_llc_repl: checkpoint 1
m_irrregData_startID
potp_llc_repl: checkpoint 1
m_irrregData_startID
potp_llc_repl: checkpoint 1
m_irrregData_startID
potp_llc_repl: checkpoint 1
m_irrregData_startID
potp_llc_repl: checkpoint 1
m_irrregData_startID
potp_llc_repl: checkpoint 1
m_irrregData_startID
potp_llc_repl: checkpoint 1
m_irrregData_startID
potp_llc_repl: checkpoint 1
m_irrregData_startID
potp_llc_repl: checkpoint 1
m_irrregData_startID
potp_llc_repl: checkpoint 1
m_irrregData_startID
potp_llc_repl: checkpoint 1
m_irrregData_startID
potp_llc_repl: checkpoint 1
m_irrregData_startID
potp_llc_repl: checkpoint 1
m_irrregData_startID
potp_llc_repl: checkpoint 1
m_irrregData_startID
potp_llc_repl: checkpoint 1
m_irrregData_startID
potp_llc_repl: checkpoint 1
m_irrregData_startID
potp_llc_repl: checkpoint 1
m_irrregData_startID
potp_llc_repl: checkpoint 1
m_irrregData_startID
potp_llc_repl: checkpoint 1
m_irrregData_startID
potp_llc_repl: checkpoint 1
m_irrregData_startID
potp_llc_repl: checkpoint 1
m_irrregData_startID
potp_llc_repl: checkpoint 1
m_irrregData_startID
potp_llc_repl: checkpoint 1
m_irrregData_startID
potp_llc_repl: checkpoint 1
m_irrregData_startID
potp_llc_repl: checkpoint 1
m_irrregData_startID
potp_llc_repl: checkpoint 1
m_irrregData_startID
potp_llc_repl: checkpoint 1
m_irrregData_startID
potp_llc_repl: checkpoint 1
m_irrregData_startID
potp_llc_repl: checkpoint 1
m_irrregData_startID
potp_llc_repl: checkpoint 1
m_irrregData_startID
potp_llc_repl: checkpoint 1
m_irrregData_startID
potp_llc_repl: checkpoint 1
m_irrregData_startID
potp_llc_repl: checkpoint 1
m_irrregData_startID
potp_llc_repl: checkpoint 1
m_irrregData_startID
potp_llc_repl: checkpoint 1
m_irrregData_startID
potp_llc_repl: checkpoint 1
m_irrregData_startID
potp_llc_repl: checkpoint 1
m_irrregData_startID
potp_llc_repl: checkpoint 1
m_irrregData_startID
potp_llc_repl: checkpoint 1
m_irrregData_startID
potp_llc_repl: checkpoint 1
m_irrregData_startID
potp_llc_repl: checkpoint 1
m_irrregData_startID
potp_llc_repl: checkpoint 1
m_irrregData_startID
potp_llc_repl: checkpoint 1
m_irrregData_startID
potp_llc_repl: checkpoint 1
m_irrregData_startID
potp_llc_repl: checkpoint 1
m_irrregData_startID
potp_llc_repl: checkpoint 1
m_irrregData_startID
potp_llc_repl: checkpoint 1
m_irrregData_startID
potp_llc_repl: checkpoint 1
m_irrregData_startID
potp_llc_repl: checkpoint 1
m_irrregData_startID
potp_llc_repl: checkpoint 1
m_irrregData_startID
potp_llc_repl: checkpoint 1
m_irrregData_startID
potp_llc_repl: checkpoint 1
m_irrregData_startID
potp_llc_repl: checkpoint 1
m_irrregData_startID
potp_llc_repl: checkpoint 1
m_irrregData_startID
potp_llc_repl: checkpoint 1
m_irrregData_startID
potp_llc_repl: checkpoint 1
m_irrregData_startID
potp_llc_repl: checkpoint 1
m_irrregData_startID
potp_llc_repl: checkpoint 1
m_irrregData_startID
potp_llc_repl: checkpoint 1
m_irrregData_startID
potp_llc_repl: checkpoint 1
m_irrregData_startID
potp_llc_repl: checkpoint 1
m_irrregData_startID
potp_llc_repl: checkpoint 1
m_irrregData_startID
potp_llc_repl: checkpoint 1
m_irrregData_startID
potp_llc_repl: checkpoint 1
m_irrregData_startID
potp_llc_repl: checkpoint 1
m_irrregData_startID
potp_llc_repl: checkpoint 1
m_irrregData_startID
potp_llc_repl: checkpoint 1
m_irrregData_startID
potp_llc_repl: checkpoint 1
m_irrregData_startID
potp_llc_repl: checkpoint 1
m_irrregData_startID
potp_llc_repl: checkpoint 1
m_irrregData_startID
potp_llc_repl: checkpoint 1
m_irrregData_startID
potp_llc_repl: checkpoint 1
m_irrregData_startID
potp_llc_repl: checkpoint 1
m_irrregData_startID
potp_llc_repl: checkpoint 1
m_irrregData_startID
potp_llc_repl: checkpoint 1
m_irrregData_startID
potp_llc_repl: checkpoint 1
m_irrregData_startID
potp_llc_repl: checkpoint 1
m_irrregData_startID
potp_llc_repl: checkpoint 1
m_irrregData_startID
potp_llc_repl: checkpoint 1
m_irrregData_startID
potp_llc_repl: checkpoint 1
m_irrregData_startID
potp_llc_repl: checkpoint 1
m_irrregData_startID
potp_llc_repl: checkpoint 1
m_irrregData_startID
potp_llc_repl: checkpoint 1
m_irrregData_startID
potp_llc_repl: checkpoint 1
m_irrregData_startID
potp_llc_repl: checkpoint 1
m_irrregData_startID
potp_llc_repl: checkpoint 1
m_irrregData_startID
potp_llc_repl: checkpoint 1
m_irrregData_startID
potp_llc_repl: checkpoint 1
m_irrregData_startID
potp_llc_repl: checkpoint 1
m_irrregData_startID
potp_llc_repl: checkpoint 1
m_irrregData_startID
potp_llc_repl: checkpoint 1
m_irrregData_startID
potp_llc_repl: checkpoint 1
m_irrregData_startID
potp_llc_repl: checkpoint 1
m_irrregData_startID
potp_llc_repl: checkpoint 1
m_irrregData_startID
potp_llc_repl: checkpoint 1
m_irrregData_startID
potp_llc_repl: checkpoint 1
m_irrregData_startID
potp_llc_repl: checkpoint 1
m_irrregData_startID
potp_llc_repl: checkpoint 1
m_irrregData_startID
potp_llc_repl: checkpoint 1
m_irrregData_startID
potp_llc_repl: checkpoint 1
m_irrregData_startID
potp_llc_repl: checkpoint 1
m_irrregData_startID
potp_llc_repl: checkpoint 1
m_irrregData_startID
potp_llc_repl: checkpoint 1
m_irrregData_startID
potp_llc_repl: checkpoint 1
m_irrregData_startID
potp_llc_repl: checkpoint 1
m_irrregData_startID
potp_llc_repl: checkpoint 1
m_irrregData_startID
potp_llc_repl: checkpoint 1
m_irrregData_startID
potp_llc_repl: checkpoint 1
m_irrregData_startID
potp_llc_repl: checkpoint 1
m_irrregData_startID
potp_llc_repl: checkpoint 1
m_irrregData_startID
potp_llc_repl: checkpoint 1
m_irrregData_startID
potp_llc_repl: checkpoint 1
m_irrregData_startID
potp_llc_repl: checkpoint 1
m_irrregData_startID
potp_llc_repl: checkpoint 1
m_irrregData_startID
potp_llc_repl: checkpoint 1
m_irrregData_startID
potp_llc_repl: checkpoint 1
m_irrregData_startID
potp_llc_repl: checkpoint 1
m_irrregData_startID
potp_llc_repl: checkpoint 1
m_irrregData_startID
potp_llc_repl: checkpoint 1
m_irrregData_startID
potp_llc_repl: checkpoint 1
m_irrregData_startID
potp_llc_repl: checkpoint 1
m_irrregData_startID
potp_llc_repl: checkpoint 1
m_irrregData_startID
potp_llc_repl: checkpoint 1
m_irrregData_startID
potp_llc_repl: checkpoint 1
m_irrregData_startID
potp_llc_repl: checkpoint 1
m_irrregData_startID
potp_llc_repl: checkpoint 1
m_irrregData_startID
potp_llc_repl: checkpoint 1
m_irrregData_startID
potp_llc_repl: checkpoint 1
m_irrregData_startID
potp_llc_repl: checkpoint 1
m_irrregData_startID
potp_llc_repl: checkpoint 1
m_irrregData_startID
potp_llc_repl: checkpoint 1
m_irrregData_startID
potp_llc_repl: checkpoint 1
m_irrregData_startID
potp_llc_repl: checkpoint 1
m_irrregData_startID
potp_llc_repl: checkpoint 1
m_irrregData_startID
potp_llc_repl: checkpoint 1
m_irrregData_startID
potp_llc_repl: checkpoint 1
m_irrregData_startID
potp_llc_repl: checkpoint 1
m_irrregData_startID
potp_llc_repl: checkpoint 1
m_irrregData_startID
potp_llc_repl: checkpoint 1
m_irrregData_startID
potp_llc_repl: checkpoint 1
m_irrregData_startID
potp_llc_repl: checkpoint 1
m_irrregData_startID
potp_llc_repl: checkpoint 1
m_irrregData_startID
potp_llc_repl: checkpoint 1
m_irrregData_startID
potp_llc_repl: checkpoint 1
m_irrregData_startID
potp_llc_repl: checkpoint 1
m_irrregData_startID
potp_llc_repl: checkpoint 1
m_irrregData_startID
potp_llc_repl: checkpoint 1
m_irrregData_startID
potp_llc_repl: checkpoint 1
m_irrregData_startID
potp_llc_repl: checkpoint 1
m_irrregData_startID
potp_llc_repl: checkpoint 1
m_irrregData_startID
potp_llc_repl: checkpoint 1
m_irrregData_startID
potp_llc_repl: checkpoint 1
m_irrregData_startID
potp_llc_repl: checkpoint 1
m_irrregData_startID
potp_llc_repl: checkpoint 1
m_irrregData_startID
potp_llc_repl: checkpoint 1
m_irrregData_startID
potp_llc_repl: checkpoint 1
m_irrregData_startID
potp_llc_repl: checkpoint 1
m_irrregData_startID
potp_llc_repl: checkpoint 1
m_irrregData_startID
potp_llc_repl: checkpoint 1
m_irrregData_startID
potp_llc_repl: checkpoint 1
m_irrregData_startID
potp_llc_repl: checkpoint 1
m_irrregData_startID
potp_llc_repl: checkpoint 1
m_irrregData_startID
potp_llc_repl: checkpoint 1
m_irrregData_startID
potp_llc_repl: checkpoint 1
m_irrregData_startID
potp_llc_repl: checkpoint 1
m_irrregData_startID
potp_llc_repl: checkpoint 1
m_irrregData_startID
potp_llc_repl: checkpoint 1
m_irrregData_startID
potp_llc_repl: checkpoint 1
m_irrregData_startID
potp_llc_repl: checkpoint 1
m_irrregData_startID
potp_llc_repl: checkpoint 1
m_irrregData_startID
potp_llc_repl: checkpoint 1
*** Reached end of trace for Core: 0 Repeating trace: /ChampSim/dpc3_traces/champsim10.trace.xz
*** Reached end of trace for Core: 0 Repeating trace: /ChampSim/dpc3_traces/champsim10.trace.xz
*** Reached end of trace for Core: 0 Repeating trace: /ChampSim/dpc3_traces/champsim10.trace.xz
*** Reached end of trace for Core: 0 Repeating trace: /ChampSim/dpc3_traces/champsim10.trace.xz
*** Reached end of trace for Core: 0 Repeating trace: /ChampSim/dpc3_traces/champsim10.trace.xz
Heartbeat CPU 0 instructions: 10000003 cycles: 11780126 heartbeat IPC: 0.848888 cumulative IPC: 0.793333 (Simulation time: 0 hr 0 min 26 sec) 
*** Reached end of trace for Core: 0 Repeating trace: /ChampSim/dpc3_traces/champsim10.trace.xz
Finished CPU 0 instructions: 10000000 cycles: 12460595 cumulative IPC: 0.80253 (Simulation time: 0 hr 0 min 28 sec) 

ChampSim completed all CPUs

Region of Interest Statistics

CPU 0 cumulative IPC: 0.80253 instructions: 10000000 cycles: 12460595
L1D TOTAL     ACCESS:    3435567  HIT:    2910681  MISS:     524886
L1D LOAD      ACCESS:    2455300  HIT:    2393599  MISS:      61701
L1D RFO       ACCESS:     980267  HIT:     517082  MISS:     463185
L1D PREFETCH  ACCESS:          0  HIT:          0  MISS:          0
L1D WRITEBACK ACCESS:          0  HIT:          0  MISS:          0
L1D PREFETCH  REQUESTED:          0  ISSUED:          0  USEFUL:          0  USELESS:          0
L1D AVERAGE MISS LATENCY: 18.6514 cycles
L1I TOTAL     ACCESS:    1799944  HIT:    1795550  MISS:       4394
L1I LOAD      ACCESS:    1799944  HIT:    1795550  MISS:       4394
L1I RFO       ACCESS:          0  HIT:          0  MISS:          0
L1I PREFETCH  ACCESS:          0  HIT:          0  MISS:          0
L1I WRITEBACK ACCESS:          0  HIT:          0  MISS:          0
L1I PREFETCH  REQUESTED:          0  ISSUED:          0  USEFUL:          0  USELESS:          0
L1I AVERAGE MISS LATENCY: 50.8009 cycles
L2C TOTAL     ACCESS:     995115  HIT:     937854  MISS:      57261
L2C LOAD      ACCESS:      66095  HIT:      16939  MISS:      49156
L2C RFO       ACCESS:     463185  HIT:     455567  MISS:       7618
L2C PREFETCH  ACCESS:          0  HIT:          0  MISS:          0
L2C WRITEBACK ACCESS:     465835  HIT:     465348  MISS:        487
L2C PREFETCH  REQUESTED:          0  ISSUED:          0  USEFUL:          0  USELESS:          0
L2C AVERAGE MISS LATENCY: 36.2555 cycles
LLC TOTAL     ACCESS:      65167  HIT:      60017  MISS:       5150
LLC LOAD      ACCESS:      49156  HIT:      44809  MISS:       4347
LLC RFO       ACCESS:       7618  HIT:       7602  MISS:         16
LLC PREFETCH  ACCESS:          0  HIT:          0  MISS:          0
LLC WRITEBACK ACCESS:       8393  HIT:       7606  MISS:        787
LLC PREFETCH  REQUESTED:          0  ISSUED:          0  USEFUL:          0  USELESS:          0
LLC AVERAGE MISS LATENCY: 72.2066 cycles
Major fault: 0 Minor fault: 349

DRAM Statistics
 CHANNEL 0
 RQ ROW_BUFFER_HIT:       3779  ROW_BUFFER_MISS:        584
 DBUS_CONGESTED:         91
 WQ ROW_BUFFER_HIT:          0  ROW_BUFFER_MISS:          0  FULL:          0

 AVG_CONGESTED_CYCLE: 5

CPU 0 Branch Prediction Accuracy: 97.3496% MPKI: 4.1627 Average ROB Occupancy at Mispredict: 76.8101

Branch types
NOT_BRANCH: 8429106 84.2911%
BRANCH_DIRECT_JUMP: 38852 0.38852%
BRANCH_INDIRECT: 77 0.00077%
BRANCH_CONDITIONAL: 1434089 14.3409%
BRANCH_DIRECT_CALL: 59890 0.5989%
BRANCH_INDIRECT_CALL: 2391 0.02391%
BRANCH_RETURN: 35279 0.35279%
BRANCH_OTHER: 0 0%

